(PID.TID 0000.0001) 
(PID.TID 0000.0001) // ======================================================
(PID.TID 0000.0001) //                      MITgcm UV
(PID.TID 0000.0001) //                      =========
(PID.TID 0000.0001) // ======================================================
(PID.TID 0000.0001) // execution environment starting up...
(PID.TID 0000.0001) 
(PID.TID 0000.0001) // MITgcmUV version:  checkpoint66g
(PID.TID 0000.0001) // Build user:        dannes1
(PID.TID 0000.0001) // Build host:        eslogin003
(PID.TID 0000.0001) // Build date:        Tue Dec 15 10:04:55 GMT 2020
(PID.TID 0000.0001) 
(PID.TID 0000.0001) // =======================================================
(PID.TID 0000.0001) // Execution Environment parameter file "eedata"
(PID.TID 0000.0001) // =======================================================
(PID.TID 0000.0001) ># Example "eedata" file
(PID.TID 0000.0001) ># Lines beginning "#" are comments
(PID.TID 0000.0001) ># nTx - No. threads per process in X
(PID.TID 0000.0001) ># nTy - No. threads per process in Y
(PID.TID 0000.0001) > &EEPARMS
(PID.TID 0000.0001) > debugMode=.FALSE.,
(PID.TID 0000.0001) > useCubedSphereExchange=.TRUE.,
(PID.TID 0000.0001) > nTx=1,
(PID.TID 0000.0001) > nTy=1,
(PID.TID 0000.0001) > /
(PID.TID 0000.0001) ># Note: Some systems use & as the
(PID.TID 0000.0001) ># namelist terminator. Other systems
(PID.TID 0000.0001) ># use a / character (as shown here).
(PID.TID 0000.0001) 
(PID.TID 0000.0001) // =======================================================
(PID.TID 0000.0001) // Computational Grid Specification ( see files "SIZE.h" )
(PID.TID 0000.0001) //                                  ( and "eedata"       )
(PID.TID 0000.0001) // =======================================================
(PID.TID 0000.0001)      nPx =  360 ; /* No. processes in X */
(PID.TID 0000.0001)      nPy =    1 ; /* No. processes in Y */
(PID.TID 0000.0001)      nSx =    1 ; /* No. tiles in X per process */
(PID.TID 0000.0001)      nSy =    1 ; /* No. tiles in Y per process */
(PID.TID 0000.0001)      sNx =   15 ; /* Tile size in X */
(PID.TID 0000.0001)      sNy =   15 ; /* Tile size in Y */
(PID.TID 0000.0001)      OLx =    4 ; /* Tile overlap distance in X */
(PID.TID 0000.0001)      OLy =    4 ; /* Tile overlap distance in Y */
(PID.TID 0000.0001)      nTx =    1 ; /* No. threads in X per process */
(PID.TID 0000.0001)      nTy =    1 ; /* No. threads in Y per process */
(PID.TID 0000.0001)       Nr =   50 ; /* No. levels in the vertical   */
(PID.TID 0000.0001)       Nx = 5400 ; /* Total domain size in X ( = nPx*nSx*sNx ) */
(PID.TID 0000.0001)       Ny =   15 ; /* Total domain size in Y ( = nPy*nSy*sNy ) */
(PID.TID 0000.0001)   nTiles =    1 ; /* Total no. tiles per process ( = nSx*nSy ) */
(PID.TID 0000.0001)   nProcs =  360 ; /* Total no. processes ( = nPx*nPy ) */
(PID.TID 0000.0001) nThreads =    1 ; /* Total no. threads per process ( = nTx*nTy ) */
(PID.TID 0000.0001) usingMPI =    T ; /* Flag used to control whether MPI is in use */
(PID.TID 0000.0001)                   /*  note: To execute a program with MPI calls */
(PID.TID 0000.0001)                   /*  it must be launched appropriately e.g     */
(PID.TID 0000.0001)                   /*  "mpirun -np 64 ......"                    */
(PID.TID 0000.0001) useCoupler=    F ;/* Flag used to control communications with   */
(PID.TID 0000.0001)                   /*  other model components, through a coupler */
(PID.TID 0000.0001) debugMode =    F ; /* print debug msg. (sequence of S/R calls)  */
(PID.TID 0000.0001) printMapIncludesZeros=    F ; /* print zeros in Std.Output maps */
(PID.TID 0000.0001) maxLengthPrt1D=   65 /* maxLength of 1D array printed to StdOut */
(PID.TID 0000.0001) 
(PID.TID 0000.0001) ======= Starting MPI parallel Run =========
(PID.TID 0000.0001)  My Processor Name (len:  8 ) = nid04671
(PID.TID 0000.0001)  Located at (  0,  0) on processor grid (0:359,0:  0)
(PID.TID 0000.0001)  Origin at  (     1,     1) on global grid (1:  5400,1:    15)
(PID.TID 0000.0001)  North neighbor = processor 0000
(PID.TID 0000.0001)  South neighbor = processor 0000
(PID.TID 0000.0001)   East neighbor = processor 0001
(PID.TID 0000.0001)   West neighbor = processor 0359
(PID.TID 0000.0001) // ======================================================
(PID.TID 0000.0001) // Mapping of tiles to threads
(PID.TID 0000.0001) // ======================================================
(PID.TID 0000.0001) // -o- Thread   1, tiles (   1:   1,   1:   1)
(PID.TID 0000.0001) 
(PID.TID 0000.0001) W2_READPARMS: opening data.exch2
(PID.TID 0000.0001)  OPEN_COPY_DATA_FILE: opening file data.exch2
(PID.TID 0000.0001) // =======================================================
(PID.TID 0000.0001) // Parameter file "data.exch2"
(PID.TID 0000.0001) // =======================================================
(PID.TID 0000.0001) ># EXCH2 Package: Wrapper-2 User Choice
(PID.TID 0000.0001) >#--------------------
(PID.TID 0000.0001) >#  preDefTopol   :: pre-defined Topology selector:
(PID.TID 0000.0001) >#                :: = 0 : topology defined from processing "data.exch2";
(PID.TID 0000.0001) >#                :: = 1 : simple, single facet topology;
(PID.TID 0000.0001) >#                :: = 2 : customized topology (w2_set_myown_facets)
(PID.TID 0000.0001) >#                :: = 3 : 6-facet Cube (3 face-dims: nRed, nGreen, nBlue).
(PID.TID 0000.0001) >#  dimsFacets    :: facet pair of dimensions (n1x,n1y, n2x,n2y ...)
(PID.TID 0000.0001) >#  facetEdgeLink :: Face-Edge connectivity map:
(PID.TID 0000.0001) >#    facetEdgeLink(i,j)=XX.1 : face(j)-edge(i) (i=1,2,3,4 <==> N,S,E,W)
(PID.TID 0000.0001) >#    is connected to Northern edge of face "XX" ; similarly,
(PID.TID 0000.0001) >#    = XX.2 : to Southern.E, XX.3 = Eastern.E, XX.4 = Western.E of face "XX"
(PID.TID 0000.0001) >#  blankList     :: List of "blank" tiles
(PID.TID 0000.0001) >#  W2_mapIO      :: global map IO selector (-1 = old type ; 0 = 1 long line in X
(PID.TID 0000.0001) >#                :: 1 = compact, mostly in Y dir)
(PID.TID 0000.0001) >#  W2_printMsg   :: option for information messages printing
(PID.TID 0000.0001) >#                :: <0 : write to log file ; =0 : minimum print ;
(PID.TID 0000.0001) >#                :: =1 : no duplicated print ; =2 : all processes do print
(PID.TID 0000.0001) >#--------------------
(PID.TID 0000.0001) > &W2_EXCH2_PARM01
(PID.TID 0000.0001) >  W2_printMsg= 0,
(PID.TID 0000.0001) >  W2_mapIO   = 1,
(PID.TID 0000.0001) >#
(PID.TID 0000.0001) >  preDefTopol=0,
(PID.TID 0000.0001) >#-- 5 facets llc_120 topology (drop facet 6 and its connection):
(PID.TID 0000.0001) >  dimsFacets(1:10) = 90, 270, 90, 270, 90, 90, 270, 90, 270, 90,
(PID.TID 0000.0001) >  facetEdgeLink(1:4,1)= 3.4, 0. , 2.4, 5.1,
(PID.TID 0000.0001) >  facetEdgeLink(1:4,2)= 3.2, 0. , 4.2, 1.3,
(PID.TID 0000.0001) >  facetEdgeLink(1:4,3)= 5.4, 2.1, 4.4, 1.1,
(PID.TID 0000.0001) >  facetEdgeLink(1:4,4)= 5.2, 2.3, 0. , 3.3,
(PID.TID 0000.0001) >  facetEdgeLink(1:4,5)= 1.4, 4.1, 0. , 3.1,
(PID.TID 0000.0001) >#-- full 6 facets llc_120 topology (equivalent to default preDefTopol=3):
(PID.TID 0000.0001) ># dimsFacets(1:12) = 120, 360, 120, 360, 120, 120, 360, 120, 360, 120, 120, 120,
(PID.TID 0000.0001) ># facetEdgeLink(1:4,1)= 3.4, 6.1, 2.4, 5.1,
(PID.TID 0000.0001) ># facetEdgeLink(1:4,2)= 3.2, 6.3, 4.2, 1.3,
(PID.TID 0000.0001) ># facetEdgeLink(1:4,3)= 5.4, 2.1, 4.4, 1.1,
(PID.TID 0000.0001) ># facetEdgeLink(1:4,4)= 5.2, 2.3, 6.2, 3.3,
(PID.TID 0000.0001) ># facetEdgeLink(1:4,5)= 1.4, 4.1, 6.4, 3.1,
(PID.TID 0000.0001) ># facetEdgeLink(1:4,6)= 1.2, 4.3, 2.2, 5.3,
(PID.TID 0000.0001) >#
(PID.TID 0000.0001) >#90x30   nprocs = 36
(PID.TID 0000.0001) >#  blankList(1:3)=1,10,11,
(PID.TID 0000.0001) >#30x90
(PID.TID 0000.0001) >#
(PID.TID 0000.0001) >#45x30   nprocs = 72
(PID.TID 0000.0001) >#  blankList(1:6)=1,2,19,20,21,22
(PID.TID 0000.0001) >#old:  blankList(1:8)=1,2,19,20,21,22,33,72
(PID.TID 0000.0001) >#30x45   nprocs = 68
(PID.TID 0000.0001) >#  blankList(1:10)=2,3,19,20,21,35,51,60,69,78
(PID.TID 0000.0001) >#45x45   nprocs = 48
(PID.TID 0000.0001) >#  blankList(1:4)=2,13,14,23
(PID.TID 0000.0001) >#old:  blankList(1:3)=2,13,14
(PID.TID 0000.0001) >#30x30   nprocs = 96
(PID.TID 0000.0001) ># blankList(1:21)=1,2,3,5,6,28,29,30,31,32,33,49,50,52,53,72,81,90,99,108,117
(PID.TID 0000.0001) >#old:   blankList(1:18)=1,2,3,28,29,30,31,32,33,49,50,53,72,81,90,99,108,117
(PID.TID 0000.0001) >#15x30   nprocs = 192
(PID.TID 0000.0001) >#  blankList(1:42)=1,2,3,4,5,6,9,10,11,12,55,56,57,58,59,60,61,62,63,64,65,66,
(PID.TID 0000.0001) >#            97,98,99,100,103,104,105,106,143,144,
(PID.TID 0000.0001) >#            161,162,179,180,197,198,215,216,233,234
(PID.TID 0000.0001) >#15x15   nprocs = 360
(PID.TID 0000.0001) >   blankList(1:108)=1,2,3,4,5,6,7,8,9,10,11,12,14,15,16,17,18,21,22,23,24,
(PID.TID 0000.0001) >   65,71,75,76,90,95,96,101,102,109,110,111,112,113,114,115,116,117,118,119,
(PID.TID 0000.0001) >   120,121,122,123,124,125,126,127,128,129,130,131,132,
(PID.TID 0000.0001) >   188,189,190,193,194,195,196,199,
(PID.TID 0000.0001) >   200,201,202,203,205,206,207,208,209,211,212,213,214,215,216,242,247,253,
(PID.TID 0000.0001) >   267,268,269,270,287,288,305,306,323,324,341,342,359,360,362,376,377,378,
(PID.TID 0000.0001) >   380,381,382,395,396,400,412,413,414,430,
(PID.TID 0000.0001) >#
(PID.TID 0000.0001) > /
(PID.TID 0000.0001) 
(PID.TID 0000.0001) W2_READPARMS: finished reading data.exch2
(PID.TID 0000.0001) W2_useE2ioLayOut=    T ;/* T: use Exch2 glob IO map; F: use model default */
(PID.TID 0000.0001) W2_mapIO        =   1 ; /* select option for Exch2 global-IO map */
(PID.TID 0000.0001) W2_printMsg     =   0 ; /* select option for printing information */
(PID.TID 0000.0001) ===== Start setting W2 TOPOLOGY:
(PID.TID 0000.0001) W2_E2SETUP: number of Active Tiles =     360
(PID.TID 0000.0001) W2_E2SETUP: number of Blank Tiles  =     108
(PID.TID 0000.0001) W2_E2SETUP: Total number of Tiles  =     468
(PID.TID 0000.0001) W2_SET_GEN_FACETS: preDefTopol=  0 selected
(PID.TID 0000.0001) W2_SET_GEN_FACETS: Number of facets =  5 (inferred from "dimsFacets")
(PID.TID 0000.0001) W2_E2SETUP: Total number of Facets =       5
(PID.TID 0000.0001) W2_SET_F2F_INDEX: index matrix for connected Facet-Edges:
(PID.TID 0000.0001) ** WARNING ** S.Edge of facet #  1 disconnected (facet_link=  0.00)
(PID.TID 0000.0001) ** WARNING ** S.Edge of facet #  2 disconnected (facet_link=  0.00)
(PID.TID 0000.0001) ** WARNING ** E.Edge of facet #  4 disconnected (facet_link=  0.00)
(PID.TID 0000.0001) ** WARNING ** E.Edge of facet #  5 disconnected (facet_link=  0.00)
(PID.TID 0000.0001) W2_SET_MAP_TILES: tile mapping within facet and global Map:
(PID.TID 0000.0001)  W2_mapIO =   90 (=    6*sNx)
(PID.TID 0000.0001)  Global Map (IO): X-size=      90 , Y-size=    1170
(PID.TID 0000.0001) W2_SET_MAP_TILES: tile offset within facet and global Map:
- facet  1 : X-size=    90 , Y-size=   270 ;  108 tiles (Tx,Ty=   6,  18)
- facet  2 : X-size=    90 , Y-size=   270 ;  108 tiles (Tx,Ty=   6,  18)
- facet  3 : X-size=    90 , Y-size=    90 ;   36 tiles (Tx,Ty=   6,   6)
- facet  4 : X-size=   270 , Y-size=    90 ;  108 tiles (Tx,Ty=  18,   6)
- facet  5 : X-size=   270 , Y-size=    90 ;  108 tiles (Tx,Ty=  18,   6)
(PID.TID 0000.0001) W2_SET_MAP_CUMSUM: setting Facet Matrix for CUMUL-SUM
(PID.TID 0000.0001) W2_SET_MAP_CUMSUM: set    4 /   5 active facets (pass,type=   1, 1)
 Facet Matrix for CUMUL-SUM (nFacets=   5, nActive=   5 ):
- facet  1 :  0  0 ,  0  0 ,  0  0 ,  0  0 ,  0  0 ,
- facet  2 :  1  0 ,  0  0 ,  0  0 ,  0  0 ,  0  0 ,
- facet  3 :  1  0 ,  0  1 ,  0  0 ,  0  0 ,  0  0 ,
- facet  4 :  1  0 ,  0  1 ,  1  0 ,  0  0 ,  0  0 ,
- facet  5 :  1  0 ,  0  1 ,  1  0 ,  0  1 ,  0  0 ,
 missing-corner Tile for CUMUL-SUM (nTiles=   468 ): W2_tMC1=   103 , W2_tMC2=     0
(PID.TID 0000.0001) W2_SET_MAP_CUMSUM: done (skip Tile Matrix setting)
(PID.TID 0000.0001) W2_SET_TILE2TILES: tile neighbours and index connection:
(PID.TID 0000.0001) current Max.Nb.Neighbours (e.g., on tile   19 ) =  4
(PID.TID 0000.0001) ===== W2 TILE TOPOLOGY =====
(PID.TID 0000.0001)  TILE:    13 (bi,bj=   1   1 ), Nb of Neighbours =  2
(PID.TID 0000.0001)     NEIGHBOUR  1 = TILE   19 (n=  2) Comm = MSG (PROC=    2)
(PID.TID 0000.0001)     NEIGHBOUR  2 = TILE  466 (n=  1) Comm = MSG (PROC=  358)
(PID.TID 0000.0001) =====       setting W2 TOPOLOGY: Done
(PID.TID 0000.0001) 
(PID.TID 0000.0001)  INI_PARMS: opening model parameter file "data"
(PID.TID 0000.0001)  OPEN_COPY_DATA_FILE: opening file data
(PID.TID 0000.0001) // =======================================================
(PID.TID 0000.0001) // Parameter file "data"
(PID.TID 0000.0001) // =======================================================
(PID.TID 0000.0001) ># ====================
(PID.TID 0000.0001) ># | Model parameters |
(PID.TID 0000.0001) ># ====================
(PID.TID 0000.0001) >#
(PID.TID 0000.0001) ># Continuous equation parameters
(PID.TID 0000.0001) > &PARM01
(PID.TID 0000.0001) > tRef               = 3*23.,3*22.,21.,2*20.,19.,2*18.,17.,2*16.,15.,14.,13.,
(PID.TID 0000.0001) >                      12.,11.,2*9.,8.,7.,2*6.,2*5.,3*4.,3*3.,4*2.,12*1.,
(PID.TID 0000.0001) > sRef               = 50*34.5,
(PID.TID 0000.0001) > no_slip_sides  = .TRUE.,
(PID.TID 0000.0001) > no_slip_bottom = .TRUE.,
(PID.TID 0000.0001) >#
(PID.TID 0000.0001) > viscAr=0.5E-4,
(PID.TID 0000.0001) >#
(PID.TID 0000.0001) > viscAh=1.E0,
(PID.TID 0000.0001) > viscAhGrid=2.E-2,
(PID.TID 0000.0001) ># viscAh=2.0e4,
(PID.TID 0000.0001) >#
(PID.TID 0000.0001) > diffKhT=1.E1,
(PID.TID 0000.0001) > diffKrT=1.E-5,
(PID.TID 0000.0001) > diffKhS=1.E1,
(PID.TID 0000.0001) > diffKrS=1.E-5,
(PID.TID 0000.0001) >#
(PID.TID 0000.0001) >### diffKrBL79surf=0.1E-4,
(PID.TID 0000.0001) >### diffKrBL79deep=1.0E-4,
(PID.TID 0000.0001) > bottomDragQuadratic = 0.001,
(PID.TID 0000.0001) >#when using ggl90
(PID.TID 0000.0001) > ivdc_kappa=10.,
(PID.TID 0000.0001) > implicitDiffusion=.TRUE.,
(PID.TID 0000.0001) > implicitViscosity=.TRUE.,
(PID.TID 0000.0001) > useRealFreshWaterFlux=.TRUE.,
(PID.TID 0000.0001) ># balanceThetaClimRelax=.TRUE.,
(PID.TID 0000.0001) > balanceSaltClimRelax=.TRUE.,
(PID.TID 0000.0001) ># balanceEmPmR=.TRUE.,
(PID.TID 0000.0001) ># balanceQnet=.TRUE.,
(PID.TID 0000.0001) > allowFreezing=.FALSE.,
(PID.TID 0000.0001) >### hFacInf=0.2,
(PID.TID 0000.0001) >### hFacSup=2.0,
(PID.TID 0000.0001) > hFacMin=.2,
(PID.TID 0000.0001) > hFacMinDr=5.,
(PID.TID 0000.0001) > select_rStar=2,
(PID.TID 0000.0001) > nonlinFreeSurf=4,
(PID.TID 0000.0001) > gravity=9.81,
(PID.TID 0000.0001) > rhonil=1029.,
(PID.TID 0000.0001) > rhoConst=1029.,
(PID.TID 0000.0001) > rhoConstFresh=1000.,
(PID.TID 0000.0001) > convertFW2Salt=-1.,
(PID.TID 0000.0001) > eosType='JMD95Z',
(PID.TID 0000.0001) > implicitFreeSurface=.TRUE.,
(PID.TID 0000.0001) > exactConserv=.TRUE.,
(PID.TID 0000.0001) > useSingleCpuIO=.TRUE.,
(PID.TID 0000.0001) > tempAdvScheme=30,
(PID.TID 0000.0001) > saltAdvScheme=30,
(PID.TID 0000.0001) > tempVertAdvScheme=3,
(PID.TID 0000.0001) > saltVertAdvScheme=3,
(PID.TID 0000.0001) > tempImplVertAdv=.TRUE.,
(PID.TID 0000.0001) > saltImplVertAdv=.TRUE.,
(PID.TID 0000.0001) > staggerTimeStep=.TRUE.,
(PID.TID 0000.0001) > vectorInvariantMomentum=.TRUE.,
(PID.TID 0000.0001) >#when using the cd scheme:
(PID.TID 0000.0001) ># useCDscheme=.TRUE.,
(PID.TID 0000.0001) > useJamartWetPoints=.TRUE.,
(PID.TID 0000.0001) > readBinaryPrec=32,
(PID.TID 0000.0001) > writeBinaryPrec=32,
(PID.TID 0000.0001) > debugLevel=1,
(PID.TID 0000.0001) > /
(PID.TID 0000.0001) >
(PID.TID 0000.0001) ># Elliptic solver parameters
(PID.TID 0000.0001) > &PARM02
(PID.TID 0000.0001) > cg2dMaxIters=300,
(PID.TID 0000.0001) >#cg2dTargetResWunit=1.E-12,
(PID.TID 0000.0001) > /
(PID.TID 0000.0001) >
(PID.TID 0000.0001) ># Time stepping parameters
(PID.TID 0000.0001) > &PARM03
(PID.TID 0000.0001) > nIter0=1,
(PID.TID 0000.0001) >#2 lev2 for testing:
(PID.TID 0000.0001) >#nTimeSteps=8,
(PID.TID 0000.0001) >#3month
(PID.TID 0000.0001) >#nTimeSteps=2160,
(PID.TID 0000.0001) >#18month
(PID.TID 0000.0001) > nTimeSteps=13110,
(PID.TID 0000.0001) >#2yr
(PID.TID 0000.0001) >#nTimeSteps=17520,
(PID.TID 0000.0001) >#4-yr from 2014 to 2017, inclusive
(PID.TID 0000.0001) >#nTimeSteps=35051,
(PID.TID 0000.0001) >#20y:
(PID.TID 0000.0001) >#nTimeSteps=175295,
(PID.TID 0000.0001) >#22y:
(PID.TID 0000.0001) >#nTimeSteps=192839,
(PID.TID 0000.0001) >#24y:
(PID.TID 0000.0001) >#nTimeSteps=210359,
(PID.TID 0000.0001) >#26yr
(PID.TID 0000.0001) >#nTimeSteps=227903,
(PID.TID 0000.0001) >#60 years
(PID.TID 0000.0001) >#nTimeSteps=525985,
(PID.TID 0000.0001) >#
(PID.TID 0000.0001) > forcing_In_AB=.FALSE.,
(PID.TID 0000.0001) > momDissip_In_AB=.FALSE.,
(PID.TID 0000.0001) >#when using the cd scheme:
(PID.TID 0000.0001) ># epsAB_CD = 0.25,
(PID.TID 0000.0001) ># tauCD=172800.0,
(PID.TID 0000.0001) > deltaTmom   =3600.,
(PID.TID 0000.0001) > deltaTtracer=3600.,
(PID.TID 0000.0001) > deltaTfreesurf=3600.,
(PID.TID 0000.0001) > deltaTClock =3600.,
(PID.TID 0000.0001) >#when using ab2:
(PID.TID 0000.0001) ># abEps = 0.1,
(PID.TID 0000.0001) >#when using ab3:
(PID.TID 0000.0001) > doAB_onGtGs=.FALSE.,
(PID.TID 0000.0001) > alph_AB=0.5,
(PID.TID 0000.0001) > beta_AB=0.281105,
(PID.TID 0000.0001) >#
(PID.TID 0000.0001) > pChkptFreq  =31536000.0,
(PID.TID 0000.0001) > chkptFreq   =31536000.0,
(PID.TID 0000.0001) ># taveFreq    =31536000.0,
(PID.TID 0000.0001) ># dumpFreq    =31536000.0,
(PID.TID 0000.0001) ># monitorFreq = 7200.0,
(PID.TID 0000.0001) > monitorFreq = 6307200.0,
(PID.TID 0000.0001) > dumpInitAndLast = .TRUE.,
(PID.TID 0000.0001) > adjDumpFreq = 31536000.0,
(PID.TID 0000.0001) >#adjDumpFreq = 604800.0,
(PID.TID 0000.0001) > adjMonitorFreq = 864000.0,
(PID.TID 0000.0001) > pickupStrictlyMatch=.FALSE.,
(PID.TID 0000.0001) > /
(PID.TID 0000.0001) >
(PID.TID 0000.0001) ># Gridding parameters
(PID.TID 0000.0001) > &PARM04
(PID.TID 0000.0001) > usingCurvilinearGrid=.TRUE.,
(PID.TID 0000.0001) > delR =
(PID.TID 0000.0001) >     10.00, 10.00, 10.00, 10.00, 10.00, 10.00, 10.00, 10.01,
(PID.TID 0000.0001) >     10.03, 10.11, 10.32, 10.80, 11.76, 13.42, 16.04, 19.82, 24.85,
(PID.TID 0000.0001) >     31.10, 38.42, 46.50, 55.00, 63.50, 71.58, 78.90, 85.15, 90.18,
(PID.TID 0000.0001) >     93.96, 96.58, 98.25, 99.25,100.01,101.33,104.56,111.33,122.83,
(PID.TID 0000.0001) >     139.09,158.94,180.83,203.55,226.50,249.50,272.50,295.50,318.50,
(PID.TID 0000.0001) >     341.50,364.50,387.50,410.50,433.50,456.50,
(PID.TID 0000.0001) > /
(PID.TID 0000.0001) >
(PID.TID 0000.0001) ># Input datasets
(PID.TID 0000.0001) > &PARM05
(PID.TID 0000.0001) > diffKrFile='total_diffkr_r009bit11.bin',
(PID.TID 0000.0001) > adTapeDir='tapes',
(PID.TID 0000.0001) >#bathyFile      ='bathy_eccollc_90x50.bin',
(PID.TID 0000.0001) > bathyFile      ='bathy_eccollc_90x50_min2pts.bin',
(PID.TID 0000.0001) > hydrogThetaFile='T_OWPv1_M_eccollc_90x50.bin',
(PID.TID 0000.0001) > hydrogSaltFile ='S_OWPv1_M_eccollc_90x50.bin',
(PID.TID 0000.0001) > viscA4Dfile    ='fenty_biharmonic_visc_v11.bin',
(PID.TID 0000.0001) > viscA4Zfile    ='fenty_biharmonic_visc_v11.bin',
(PID.TID 0000.0001) > geothermalFile='geothermalFlux.bin',
(PID.TID 0000.0001) >#
(PID.TID 0000.0001) > /
(PID.TID 0000.0001) 
(PID.TID 0000.0001)  INI_PARMS ; starts to read PARM01
(PID.TID 0000.0001)  INI_PARMS ; read PARM01 : OK
(PID.TID 0000.0001)  INI_PARMS ; starts to read PARM02
(PID.TID 0000.0001)  INI_PARMS ; read PARM02 : OK
(PID.TID 0000.0001)  INI_PARMS ; starts to read PARM03
(PID.TID 0000.0001)  INI_PARMS ; read PARM03 : OK
(PID.TID 0000.0001)  INI_PARMS ; starts to read PARM04
(PID.TID 0000.0001)  INI_PARMS ; read PARM04 : OK
(PID.TID 0000.0001)  INI_PARMS ; starts to read PARM05
(PID.TID 0000.0001)  INI_PARMS ; read PARM05 : OK
(PID.TID 0000.0001)  INI_PARMS: finished reading file "data"
(PID.TID 0000.0001)  PACKAGES_BOOT: opening data.pkg
(PID.TID 0000.0001)  OPEN_COPY_DATA_FILE: opening file data.pkg
(PID.TID 0000.0001) // =======================================================
(PID.TID 0000.0001) // Parameter file "data.pkg"
(PID.TID 0000.0001) // =======================================================
(PID.TID 0000.0001) ># Packages
(PID.TID 0000.0001) > &PACKAGES
(PID.TID 0000.0001) > useEXF   = .TRUE.,
(PID.TID 0000.0001) >#useRBCS  = .TRUE.,
(PID.TID 0000.0001) > useGMRedi= .TRUE.,
(PID.TID 0000.0001) ># useKPP   = .TRUE.,
(PID.TID 0000.0001) > useSBO   = .TRUE.,
(PID.TID 0000.0001) >#useMNC   = .TRUE.,
(PID.TID 0000.0001) > useSeaice= .TRUE.,
(PID.TID 0000.0001) > useGGL90=.TRUE.,
(PID.TID 0000.0001) > useSALT_PlUME=.TRUE.,
(PID.TID 0000.0001) ># useDOWN_SLOPE=.TRUE.,
(PID.TID 0000.0001) > useDiagnostics=.TRUE.,
(PID.TID 0000.0001) > useECCO=.TRUE.,
(PID.TID 0000.0001) > useCTRL=.TRUE.,
(PID.TID 0000.0001) > useProfiles=.FALSE.,
(PID.TID 0000.0001) > useSMOOTH=.TRUE.,
(PID.TID 0000.0001) >#useGrdchk=.TRUE.,
(PID.TID 0000.0001) >#useLayers=.TRUE.,
(PID.TID 0000.0001) >#
(PID.TID 0000.0001) >#usePtracers=.TRUE.,
(PID.TID 0000.0001) >#useBBL=.TRUE.,
(PID.TID 0000.0001) > /
(PID.TID 0000.0001) 
(PID.TID 0000.0001)  PACKAGES_BOOT: finished reading data.pkg
(PID.TID 0000.0001)  PACKAGES_BOOT: On/Off package Summary
 --------  pkgs with a standard "usePKG" On/Off switch in "data.pkg":  --------
 pkg/ggl90                compiled   and   used ( useGGL90                 = T )
 pkg/gmredi               compiled   and   used ( useGMRedi                = T )
 pkg/cal                  compiled   and   used ( useCAL                   = T )
 pkg/exf                  compiled   and   used ( useEXF                   = T )
 pkg/autodiff             compiled   and   used ( useAUTODIFF              = T )
 pkg/grdchk               compiled but not used ( useGrdchk                = F )
 pkg/smooth               compiled   and   used ( useSMOOTH                = T )
 pkg/profiles             compiled but not used ( usePROFILES              = F )
 pkg/ecco                 compiled   and   used ( useECCO                  = T )
 pkg/ctrl                 compiled   and   used ( useCTRL                  = T )
 pkg/sbo                  compiled   and   used ( useSBO                   = T )
 pkg/seaice               compiled   and   used ( useSEAICE                = T )
 pkg/salt_plume           compiled   and   used ( useSALT_PLUME            = T )
 pkg/diagnostics          compiled   and   used ( useDiagnostics           = T )
 -------- pkgs without standard "usePKG" On/Off switch in "data.pkg":  --------
 pkg/generic_advdiff      compiled   and   used ( useGAD                   = T )
 pkg/mom_common           compiled   and   used ( momStepping              = T )
 pkg/mom_vecinv           compiled   and   used ( +vectorInvariantMomentum = T )
 pkg/monitor              compiled   and   used ( monitorFreq > 0.         = T )
 pkg/timeave              compiled but not used ( taveFreq > 0.            = F )
 pkg/debug                compiled but not used ( debugMode                = F )
 pkg/exch2                compiled   and   used
 pkg/rw                   compiled   and   used
 pkg/mdsio                compiled   and   used
 pkg/autodiff             compiled   and   used
 pkg/cost                 compiled   and   used
(PID.TID 0000.0001)  PACKAGES_BOOT: End of package Summary
(PID.TID 0000.0001) 
(PID.TID 0000.0001) CAL_READPARMS: opening data.cal
(PID.TID 0000.0001)  OPEN_COPY_DATA_FILE: opening file data.cal
(PID.TID 0000.0001) // =======================================================
(PID.TID 0000.0001) // Parameter file "data.cal"
(PID.TID 0000.0001) // =======================================================
(PID.TID 0000.0001) >#
(PID.TID 0000.0001) ># *******************
(PID.TID 0000.0001) ># Calendar Parameters
(PID.TID 0000.0001) ># *******************
(PID.TID 0000.0001) > &CAL_NML
(PID.TID 0000.0001) > TheCalendar='gregorian',
(PID.TID 0000.0001) > calendarDumps=.TRUE.,
(PID.TID 0000.0001) ># TheCalendar='model',
(PID.TID 0000.0001) > startDate_1=19920101,
(PID.TID 0000.0001) > startDate_2=120000,
(PID.TID 0000.0001) > /
(PID.TID 0000.0001) 
(PID.TID 0000.0001) CAL_READPARMS: finished reading data.cal
(PID.TID 0000.0001) EXF_READPARMS: opening data.exf
(PID.TID 0000.0001)  OPEN_COPY_DATA_FILE: opening file data.exf
(PID.TID 0000.0001) // =======================================================
(PID.TID 0000.0001) // Parameter file "data.exf"
(PID.TID 0000.0001) // =======================================================
(PID.TID 0000.0001) ># *********************
(PID.TID 0000.0001) ># External Forcing Data
(PID.TID 0000.0001) ># *********************
(PID.TID 0000.0001) >#
(PID.TID 0000.0001) > &EXF_NML_01
(PID.TID 0000.0001) >#
(PID.TID 0000.0001) > useAtmWind        = .FALSE.,
(PID.TID 0000.0001) >#NCEP VALUES:
(PID.TID 0000.0001) ># exf_albedo        = 0.15,
(PID.TID 0000.0001) ># exf_scal_BulkCdn  = 1.015,
(PID.TID 0000.0001) >#
(PID.TID 0000.0001) >#TO COMBINE WITH ALLOW_ZENITH_ANGLE:
(PID.TID 0000.0001) > exf_albedo        = 0.1,
(PID.TID 0000.0001) > useExfZenIncoming = .TRUE.,
(PID.TID 0000.0001) > select_ZenAlbedo  = 1,
(PID.TID 0000.0001) >#
(PID.TID 0000.0001) > ocean_emissivity = 0.97,
(PID.TID 0000.0001) > ice_emissivity = 0.95,
(PID.TID 0000.0001) > snow_emissivity = 0.95,
(PID.TID 0000.0001) >#
(PID.TID 0000.0001) > exf_iprec         = 32,
(PID.TID 0000.0001) > exf_yftype        = 'RL',
(PID.TID 0000.0001) > useExfYearlyFields= .TRUE.,
(PID.TID 0000.0001) > useExfCheckRange  = .FALSE.,
(PID.TID 0000.0001) > readStressOnAgrid = .TRUE.,
(PID.TID 0000.0001) > rotateStressOnAgrid = .TRUE.,
(PID.TID 0000.0001) > /
(PID.TID 0000.0001) >#
(PID.TID 0000.0001) > &EXF_NML_02
(PID.TID 0000.0001) > ustressfile       = 'eccov4r4_ustr',
(PID.TID 0000.0001) > vstressfile       = 'eccov4r4_vstr',
(PID.TID 0000.0001) > atempfile         = 'eccov4r4_tmp2m_degC',
(PID.TID 0000.0001) > aqhfile           = 'eccov4r4_spfh2m',
(PID.TID 0000.0001) > precipfile        = 'eccov4r4_rain',
(PID.TID 0000.0001) ># uwindfile         = 'EIG_u10m',
(PID.TID 0000.0001) ># vwindfile         = 'EIG_v10m',
(PID.TID 0000.0001) > wspeedfile        = 'eccov4r4_wspeed',
(PID.TID 0000.0001) > swdownfile        = 'eccov4r4_dsw',
(PID.TID 0000.0001) > lwdownfile        = 'eccov4r4_dlw',
(PID.TID 0000.0001) > apressurefile     = 'eccov4r4_pres',
(PID.TID 0000.0001) >#
(PID.TID 0000.0001) > ustressstartdate1   = 19920101,
(PID.TID 0000.0001) > ustressstartdate2   = 030000,
(PID.TID 0000.0001) > ustressperiod       = 21600.0,
(PID.TID 0000.0001) >#
(PID.TID 0000.0001) > vstressstartdate1   = 19920101,
(PID.TID 0000.0001) > vstressstartdate2   = 030000,
(PID.TID 0000.0001) > vstressperiod       = 21600.0,
(PID.TID 0000.0001) >#
(PID.TID 0000.0001) > atempstartdate1   = 19920101,
(PID.TID 0000.0001) > atempstartdate2   = 030000,
(PID.TID 0000.0001) > atempperiod       = 21600.0,
(PID.TID 0000.0001) >#
(PID.TID 0000.0001) > aqhstartdate1     = 19920101,
(PID.TID 0000.0001) > aqhstartdate2     = 030000,
(PID.TID 0000.0001) > aqhperiod         = 21600.0,
(PID.TID 0000.0001) >#
(PID.TID 0000.0001) > precipstartdate1  = 19920101,
(PID.TID 0000.0001) > precipstartdate2  = 030000,
(PID.TID 0000.0001) > precipperiod      = 21600.0,
(PID.TID 0000.0001) >#
(PID.TID 0000.0001) > runofffile        = 'runoff-2d-Fekete-1deg-mon-V4-SMOOTH.bin',
(PID.TID 0000.0001) > runoffperiod      = -12,
(PID.TID 0000.0001) >#
(PID.TID 0000.0001) > uwindstartdate1   = 19920101,
(PID.TID 0000.0001) > uwindstartdate2   = 030000,
(PID.TID 0000.0001) > uwindperiod       = 21600.0,
(PID.TID 0000.0001) >#
(PID.TID 0000.0001) > vwindstartdate1   = 19920101,
(PID.TID 0000.0001) > vwindstartdate2   = 030000,
(PID.TID 0000.0001) > vwindperiod       = 21600.0,
(PID.TID 0000.0001) >#
(PID.TID 0000.0001) > wspeedstartdate1   = 19920101,
(PID.TID 0000.0001) > wspeedstartdate2   = 030000,
(PID.TID 0000.0001) > wspeedperiod       = 21600.0,
(PID.TID 0000.0001) >#
(PID.TID 0000.0001) > swdownstartdate1  = 19920101,
(PID.TID 0000.0001) > swdownstartdate2  = 030000,
(PID.TID 0000.0001) > swdownperiod      = 21600.0,
(PID.TID 0000.0001) >#
(PID.TID 0000.0001) > lwdownstartdate1  = 19920101,
(PID.TID 0000.0001) > lwdownstartdate2  = 030000,
(PID.TID 0000.0001) > lwdownperiod      = 21600.0,
(PID.TID 0000.0001) >#
(PID.TID 0000.0001) > apressurestartdate1   = 19920101,
(PID.TID 0000.0001) > apressurestartdate2   = 030000,
(PID.TID 0000.0001) > apressureperiod       = 21600.0,
(PID.TID 0000.0001) >#
(PID.TID 0000.0001) > climsstperiod     = -12.,
(PID.TID 0000.0001) >#climsssfile       = 'SSS_WPv1_M_eccollc_90x50.bin',
(PID.TID 0000.0001) > climsssperiod     = -12.,
(PID.TID 0000.0001) >#climsssTauRelax   = 15768000.,
(PID.TID 0000.0001) > /
(PID.TID 0000.0001) >#
(PID.TID 0000.0001) > &EXF_NML_03
(PID.TID 0000.0001) >#NOT FOR EIG exf_offset_atemp  = 273.3971,
(PID.TID 0000.0001) > exf_offset_atemp  = 273.15,
(PID.TID 0000.0001) >#NOT FOR NEW RUNOFF FIELD exf_inscal_runoff = 3.1710e-08,
(PID.TID 0000.0001) > exf_inscal_swdown = -1.0,
(PID.TID 0000.0001) > exf_inscal_lwdown = -1.0,
(PID.TID 0000.0001) > exf_inscal_ustress = -1.0,
(PID.TID 0000.0001) > exf_inscal_vstress = -1.0,
(PID.TID 0000.0001) ># to compensate for sea level rise for nlfs/realFWF
(PID.TID 0000.0001) >#precip_exfremo_intercept = 1.073E-9,
(PID.TID 0000.0001) >#precip_exfremo_slope = -3.340E-18,
(PID.TID 0000.0001) > /
(PID.TID 0000.0001) >#
(PID.TID 0000.0001) > &EXF_NML_04
(PID.TID 0000.0001) > runoff_interpMethod = 0,
(PID.TID 0000.0001) > climsss_interpMethod = 0,
(PID.TID 0000.0001) > ustress_interpMethod = 0,
(PID.TID 0000.0001) > vstress_interpMethod = 0,
(PID.TID 0000.0001) > atemp_interpMethod = 0,
(PID.TID 0000.0001) > aqh_interpMethod = 0,
(PID.TID 0000.0001) > precip_interpMethod = 0,
(PID.TID 0000.0001) > wspeed_interpMethod = 0,
(PID.TID 0000.0001) > swdown_interpMethod = 0,
(PID.TID 0000.0001) > lwdown_interpMethod = 0,
(PID.TID 0000.0001) > apressure_interpMethod = 0,
(PID.TID 0000.0001) >#
(PID.TID 0000.0001) > /
(PID.TID 0000.0001) 
(PID.TID 0000.0001) EXF_READPARMS: reading EXF_NML_01
(PID.TID 0000.0001) EXF_READPARMS: reading EXF_NML_02
(PID.TID 0000.0001) EXF_READPARMS: reading EXF_NML_03
(PID.TID 0000.0001) EXF_READPARMS: reading EXF_NML_04
(PID.TID 0000.0001) EXF_READPARMS: finished reading data.exf
(PID.TID 0000.0001)  GGL90_READPARMS: opening data.ggl90
(PID.TID 0000.0001)  OPEN_COPY_DATA_FILE: opening file data.ggl90
(PID.TID 0000.0001) // =======================================================
(PID.TID 0000.0001) // Parameter file "data.ggl90"
(PID.TID 0000.0001) // =======================================================
(PID.TID 0000.0001) ># =====================================================================
(PID.TID 0000.0001) ># | Parameters for Gaspar et al. (1990)'s TKE vertical mixing scheme  |
(PID.TID 0000.0001) ># =====================================================================
(PID.TID 0000.0001) > &GGL90_PARM01
(PID.TID 0000.0001) ># GGL90taveFreq = 345600000.,
(PID.TID 0000.0001) ># GGL90dumpFreq = 86400.,
(PID.TID 0000.0001) ># GGL90writeState=.FALSE.,
(PID.TID 0000.0001) ># GGL90diffTKEh=3.e3,
(PID.TID 0000.0001) > GGL90alpha=30.,
(PID.TID 0000.0001) ># GGL90TKEFile = 'TKE_init.bin',
(PID.TID 0000.0001) > GGL90TKEmin  = 1.e-7,
(PID.TID 0000.0001) > GGL90TKEbottom = 1.e-6,
(PID.TID 0000.0001) > mxlMaxFlag =2,
(PID.TID 0000.0001) > mxlSurfFlag=.TRUE.,
(PID.TID 0000.0001) > /
(PID.TID 0000.0001) 
(PID.TID 0000.0001)  GGL90_READPARMS: finished reading data.ggl90
(PID.TID 0000.0001) // =======================================================
(PID.TID 0000.0001) // GGL90 configuration
(PID.TID 0000.0001) // =======================================================
(PID.TID 0000.0001) GGL90dumpFreq =   /* GGL90 state write out interval ( s ). */
(PID.TID 0000.0001)                 0.000000000000000E+00
(PID.TID 0000.0001)     ;
(PID.TID 0000.0001) GGL90taveFreq =   /* GGL90 averaging interval ( s ). */
(PID.TID 0000.0001)                 0.000000000000000E+00
(PID.TID 0000.0001)     ;
(PID.TID 0000.0001) GGL90mixingMAPS =   /* GGL90 IO flag. */
(PID.TID 0000.0001)                   F
(PID.TID 0000.0001)     ;
(PID.TID 0000.0001) GGL90writeState =   /* GGL90 IO flag. */
(PID.TID 0000.0001)                   F
(PID.TID 0000.0001)     ;
(PID.TID 0000.0001) GGL90ck =   /* GGL90 viscosity parameter. */
(PID.TID 0000.0001)                 1.000000000000000E-01
(PID.TID 0000.0001)     ;
(PID.TID 0000.0001) GGL90ceps =   /* GGL90 dissipation parameter. */
(PID.TID 0000.0001)                 7.000000000000000E-01
(PID.TID 0000.0001)     ;
(PID.TID 0000.0001) GGL90alpha =   /* GGL90 TKE diffusivity parameter. */
(PID.TID 0000.0001)                 3.000000000000000E+01
(PID.TID 0000.0001)     ;
(PID.TID 0000.0001) GGL90m2 =   /* GGL90 wind stress to vertical stress ratio. */
(PID.TID 0000.0001)                 3.750000000000000E+00
(PID.TID 0000.0001)     ;
(PID.TID 0000.0001) GGL90TKEmin =   /* GGL90 minimum kinetic energy ( m^2/s^2 ). */
(PID.TID 0000.0001)                 1.000000000000000E-07
(PID.TID 0000.0001)     ;
(PID.TID 0000.0001) GGL90TKEsurfMin =   /* GGL90 minimum surface kinetic energy ( m^2/s^2 ). */
(PID.TID 0000.0001)                 1.000000000000000E-04
(PID.TID 0000.0001)     ;
(PID.TID 0000.0001) GGL90TKEbottom =   /* GGL90 bottom kinetic energy ( m^2/s^2 ). */
(PID.TID 0000.0001)                 1.000000000000000E-06
(PID.TID 0000.0001)     ;
(PID.TID 0000.0001) GGL90viscMax =   /* GGL90 upper limit for viscosity ( m^2/s ). */
(PID.TID 0000.0001)                 1.000000000000000E+02
(PID.TID 0000.0001)     ;
(PID.TID 0000.0001) GGL90diffMax =   /* GGL90 upper limit for diffusivity ( m^2/s ). */
(PID.TID 0000.0001)                 1.000000000000000E+02
(PID.TID 0000.0001)     ;
(PID.TID 0000.0001) GGL90diffTKEh =   /* GGL90 horizontal diffusivity for TKE ( m^2/s ). */
(PID.TID 0000.0001)                 0.000000000000000E+00
(PID.TID 0000.0001)     ;
(PID.TID 0000.0001) GGL90mixingLengthMin =   /* GGL90 minimum mixing length ( m ). */
(PID.TID 0000.0001)                 1.000000000000000E-08
(PID.TID 0000.0001)     ;
(PID.TID 0000.0001) mxlMaxFlag =   /* Flag for limiting mixing-length method */
(PID.TID 0000.0001)                       2
(PID.TID 0000.0001)     ;
(PID.TID 0000.0001) mxlSurfFlag =   /* GGL90 flag for near surface mixing. */
(PID.TID 0000.0001)                   T
(PID.TID 0000.0001)     ;
(PID.TID 0000.0001) calcMeanVertShear = /* calc Mean of Vert.Shear (vs shear of Mean flow) */
(PID.TID 0000.0001)                   F
(PID.TID 0000.0001)     ;
(PID.TID 0000.0001) GGL90: GGL90TKEFile =
(PID.TID 0000.0001) GGL90writeState =   /* GGL90 Boundary condition flag. */
(PID.TID 0000.0001)                   T
(PID.TID 0000.0001)     ;
(PID.TID 0000.0001) // =======================================================
(PID.TID 0000.0001) // End of GGL90 config. summary
(PID.TID 0000.0001) // =======================================================
(PID.TID 0000.0001) 
(PID.TID 0000.0001)  GM_READPARMS: opening data.gmredi
(PID.TID 0000.0001)  OPEN_COPY_DATA_FILE: opening file data.gmredi
(PID.TID 0000.0001) // =======================================================
(PID.TID 0000.0001) // Parameter file "data.gmredi"
(PID.TID 0000.0001) // =======================================================
(PID.TID 0000.0001) ># GM+Redi package parameters:
(PID.TID 0000.0001) >#     GM_Small_Number  :: epsilon used in computing the slope
(PID.TID 0000.0001) >#     GM_slopeSqCutoff :: slope^2 cut-off value
(PID.TID 0000.0001) >
(PID.TID 0000.0001) >#-from MOM :
(PID.TID 0000.0001) ># GM_background_K: 	G & Mc.W  diffusion coefficient
(PID.TID 0000.0001) ># GM_maxSlope    :	max slope of isopycnals
(PID.TID 0000.0001) ># GM_Scrit       :	transition for scaling diffusion coefficient
(PID.TID 0000.0001) ># GM_Sd          :	half width scaling for diffusion coefficient
(PID.TID 0000.0001) ># GM_taper_scheme:	slope clipping or one of the tapering schemes
(PID.TID 0000.0001) ># GM_Kmin_horiz  :	horizontal diffusion minimum value
(PID.TID 0000.0001) >
(PID.TID 0000.0001) >#-Option parameters (needs to "define" options in GMREDI_OPTIONS.h")
(PID.TID 0000.0001) ># GM_isopycK     :	isopycnal diffusion coefficient (default=GM_background_K)
(PID.TID 0000.0001) ># GM_AdvForm     :	turn on GM Advective form       (default=Skew flux form)
(PID.TID 0000.0001) >
(PID.TID 0000.0001) > &GM_PARM01
(PID.TID 0000.0001) >  GM_Small_Number  = 1.D-20,
(PID.TID 0000.0001) >  GM_slopeSqCutoff = 1.D+08,
(PID.TID 0000.0001) >  GM_AdvForm         = .TRUE.,
(PID.TID 0000.0001) >  GM_isopycK         = 1.D+3,
(PID.TID 0000.0001) >  GM_background_K    = 1.D+3,
(PID.TID 0000.0001) >  GM_maxSlope        = 4.D-3,
(PID.TID 0000.0001) >  GM_taper_scheme    = 'stableGmAdjTap',
(PID.TID 0000.0001) >  GM_Kmin_horiz      = 100.,
(PID.TID 0000.0001) >  GM_Scrit           = 4.D-3,
(PID.TID 0000.0001) >  GM_Sd              = 1.D-3,
(PID.TID 0000.0001) >  GM_background_K3dFile='total_kapgm_r009bit11.bin'
(PID.TID 0000.0001) >  GM_isopycK3dFile='total_kapredi_r009bit11.bin'
(PID.TID 0000.0001) >
(PID.TID 0000.0001) >#
(PID.TID 0000.0001) >###  GM_Visbeck_alpha   = 1.5D-2,
(PID.TID 0000.0001) >###  GM_Visbeck_alpha   = 0.D0,
(PID.TID 0000.0001) >###  GM_Visbeck_length  = 2.D+5,
(PID.TID 0000.0001) >###  GM_Visbeck_depth   = 1.D+3,
(PID.TID 0000.0001) >###  GM_Visbeck_maxval_K= 2.5D+3,
(PID.TID 0000.0001) > /
(PID.TID 0000.0001) >
(PID.TID 0000.0001) >
(PID.TID 0000.0001) 
(PID.TID 0000.0001)  GM_READPARMS: finished reading data.gmredi
(PID.TID 0000.0001) 
(PID.TID 0000.0001)  SEAICE_READPARMS: opening data.seaice
(PID.TID 0000.0001)  OPEN_COPY_DATA_FILE: opening file data.seaice
(PID.TID 0000.0001) // =======================================================
(PID.TID 0000.0001) // Parameter file "data.seaice"
(PID.TID 0000.0001) // =======================================================
(PID.TID 0000.0001) ># SEAICE parameters
(PID.TID 0000.0001) > &SEAICE_PARM01
(PID.TID 0000.0001) >
(PID.TID 0000.0001) >      SEAICEpresH0=2.,
(PID.TID 0000.0001) >      SEAICEpresPow0=1,
(PID.TID 0000.0001) >      SEAICEpresPow1=1,
(PID.TID 0000.0001) >
(PID.TID 0000.0001) >      SEAICE_strength = 2.25e4,
(PID.TID 0000.0001) >      SEAICE_area_max = 0.97,
(PID.TID 0000.0001) >
(PID.TID 0000.0001) >      SEAICE_no_slip     = .TRUE.,
(PID.TID 0000.0001) >
(PID.TID 0000.0001) >      SEAICE_drag=0.001,
(PID.TID 0000.0001) >      OCEAN_drag=0.001,
(PID.TID 0000.0001) >
(PID.TID 0000.0001) >#####
(PID.TID 0000.0001) >      SEAICEuseTILT=.FALSE.,
(PID.TID 0000.0001) >      SEAICE_multDim=1,
(PID.TID 0000.0001) >      SEAICErestoreUnderIce=.TRUE.,
(PID.TID 0000.0001) >
(PID.TID 0000.0001) >      SEAICE_salt0=4.,
(PID.TID 0000.0001) >
(PID.TID 0000.0001) >      LSR_ERROR          = 2.e-4,
(PID.TID 0000.0001) >      SEAICEuseDYNAMICS  = .TRUE.,
(PID.TID 0000.0001) >      MIN_ATEMP          = -40.,
(PID.TID 0000.0001) >      MIN_TICE           = -40.,
(PID.TID 0000.0001) >      SEAICEadvScheme    = 33,
(PID.TID 0000.0001) >      SEAICEuseFluxForm = .TRUE.,
(PID.TID 0000.0001) >      SEAICEadvSnow      = .TRUE.,
(PID.TID 0000.0001) >      SEAICEdiffKhHeff   = 400.,
(PID.TID 0000.0001) >      SEAICEdiffKhArea   = 400.,
(PID.TID 0000.0001) >      SEAICEdiffKhSnow   = 400.,
(PID.TID 0000.0001) >      SEAICEuseFlooding  = .TRUE.,
(PID.TID 0000.0001) >      SEAICE_mcPheePiston= 3.858024691358025E-05,
(PID.TID 0000.0001) >      SEAICE_frazilFrac  = 1.,
(PID.TID 0000.0001) >      SEAICE_mcPheeTaper = 0.,
(PID.TID 0000.0001) >      SEAICE_areaLossFormula=2,
(PID.TID 0000.0001) >      SEAICEheatConsFix  = .TRUE.,
(PID.TID 0000.0001) >      SEAICE_tempFrz0    = -1.96,
(PID.TID 0000.0001) >      SEAICE_dTempFrz_dS = 0.,
(PID.TID 0000.0001) >      SEAICEuseMetricTerms = .TRUE.,
(PID.TID 0000.0001) >      SEAICE_clipVelocities = .TRUE.,
(PID.TID 0000.0001) >
(PID.TID 0000.0001) >#take 33% out of (1-albedo)
(PID.TID 0000.0001) >      SEAICE_dryIceAlb   = 0.84,
(PID.TID 0000.0001) >      SEAICE_wetIceAlb   = 0.78,
(PID.TID 0000.0001) >      SEAICE_drySnowAlb  = 0.90,
(PID.TID 0000.0001) >      SEAICE_wetSnowAlb  = 0.8 ,
(PID.TID 0000.0001) >#default albedos
(PID.TID 0000.0001) >      SEAICE_dryIceAlb_south   = 0.75,
(PID.TID 0000.0001) >      SEAICE_wetIceAlb_south   = 0.66,
(PID.TID 0000.0001) >      SEAICE_drySnowAlb_south  = 0.84,
(PID.TID 0000.0001) >      SEAICE_wetSnowAlb_south  = 0.7,
(PID.TID 0000.0001) > /
(PID.TID 0000.0001) >#
(PID.TID 0000.0001) > &SEAICE_PARM02
(PID.TID 0000.0001) > /
(PID.TID 0000.0001) 
(PID.TID 0000.0001)  SEAICE_READPARMS: finished reading data.seaice
(PID.TID 0000.0001) SALT_PLUME_READPARMS: opening data.salt_plume
(PID.TID 0000.0001)  OPEN_COPY_DATA_FILE: opening file data.salt_plume
(PID.TID 0000.0001) // =======================================================
(PID.TID 0000.0001) // Parameter file "data.salt_plume"
(PID.TID 0000.0001) // =======================================================
(PID.TID 0000.0001) > &SALT_PLUME_PARM01
(PID.TID 0000.0001) ># SaltPlumeCriterion = 0.4D0,
(PID.TID 0000.0001) > SPsalFRAC= 0.5D0,
(PID.TID 0000.0001) >#SPsalFRAC= 0.25D0,
(PID.TID 0000.0001) >#SPsalFRAC= 0.0D0,
(PID.TID 0000.0001) > /
(PID.TID 0000.0001) 
(PID.TID 0000.0001) SALT_PLUME_READPARMS: finished reading data.salt_plume
(PID.TID 0000.0001) AUTODIFF_READPARMS: opening data.autodiff
(PID.TID 0000.0001)  OPEN_COPY_DATA_FILE: opening file data.autodiff
(PID.TID 0000.0001) // =======================================================
(PID.TID 0000.0001) // Parameter file "data.autodiff"
(PID.TID 0000.0001) // =======================================================
(PID.TID 0000.0001) ># =========================
(PID.TID 0000.0001) ># pkg AUTODIFF parameters :
(PID.TID 0000.0001) ># =========================
(PID.TID 0000.0001) >#  inAdExact :: get an exact adjoint (no approximation) (def=.True.)
(PID.TID 0000.0001) >#
(PID.TID 0000.0001) > &AUTODIFF_PARM01
(PID.TID 0000.0001) ># inAdExact = .FALSE.,
(PID.TID 0000.0001) > useSEAICEinAdMode = .FALSE.,
(PID.TID 0000.0001) ># useKPPinAdMode = .FALSE.,
(PID.TID 0000.0001) ># useGMRediInAdMode = .FALSE.,
(PID.TID 0000.0001) > useGGL90inAdMode = .FALSE.,
(PID.TID 0000.0001) > useSALT_PLUMEinAdMode = .FALSE.,
(PID.TID 0000.0001) > /
(PID.TID 0000.0001) 
(PID.TID 0000.0001) AUTODIFF_READPARMS: finished reading data.autodiff
(PID.TID 0000.0001) // ===================================
(PID.TID 0000.0001) // AUTODIFF parameters :
(PID.TID 0000.0001) // ===================================
(PID.TID 0000.0001) inAdExact = /* get an exact adjoint (no approximation) */
(PID.TID 0000.0001)                   T
(PID.TID 0000.0001)     ;
(PID.TID 0000.0001) useKPPinAdMode = /* use KPP in adjoint mode */
(PID.TID 0000.0001)                   F
(PID.TID 0000.0001)     ;
(PID.TID 0000.0001) useGMRediInAdMode = /* use GMRedi in adjoint mode */
(PID.TID 0000.0001)                   T
(PID.TID 0000.0001)     ;
(PID.TID 0000.0001) useSEAICEinAdMode = /* use SEAICE in adjoint mode */
(PID.TID 0000.0001)                   F
(PID.TID 0000.0001)     ;
(PID.TID 0000.0001) useGGL90inAdMode = /* use GGL90 in adjoint mode */
(PID.TID 0000.0001)                   F
(PID.TID 0000.0001)     ;
(PID.TID 0000.0001) useSALT_PLUMEinAdMode = /* use SALT_PLUME in adjoint mode */
(PID.TID 0000.0001)                   F
(PID.TID 0000.0001)     ;
(PID.TID 0000.0001) SEAICEuseDYNAMICSswitchInAd = /* switch On/Off SEAICE Dyn in AD mode */
(PID.TID 0000.0001)                   F
(PID.TID 0000.0001)     ;
(PID.TID 0000.0001) SEAICEuseFREEDRIFTswitchInAd= /* switch On/Off Free-Drift in AD mode */
(PID.TID 0000.0001)                   F
(PID.TID 0000.0001)     ;
(PID.TID 0000.0001) SEAICEapproxLevInAd = /* -1:SEAICE_FAKE, >0:other adjoint approximation */
(PID.TID 0000.0001)                       0
(PID.TID 0000.0001)     ;
(PID.TID 0000.0001) dumpAdVarExch = /* control adexch before dumpinp */
(PID.TID 0000.0001)                       2
(PID.TID 0000.0001)     ;
(PID.TID 0000.0001) mon_AdVarExch = /* control adexch before monitor */
(PID.TID 0000.0001)                       2
(PID.TID 0000.0001)     ;
(PID.TID 0000.0001) viscFacInAd = /* viscosity factor for adjoint */
(PID.TID 0000.0001)                 1.000000000000000E+00
(PID.TID 0000.0001)     ;
(PID.TID 0000.0001) 
(PID.TID 0000.0001) OPTIM_READPARMS: opening data.optim
(PID.TID 0000.0001)  OPEN_COPY_DATA_FILE: opening file data.optim
(PID.TID 0000.0001) // =======================================================
(PID.TID 0000.0001) // Parameter file "data.optim"
(PID.TID 0000.0001) // =======================================================
(PID.TID 0000.0001) > &OPTIM
(PID.TID 0000.0001) > optimcycle=129,
(PID.TID 0000.0001) > /
(PID.TID 0000.0001) 
(PID.TID 0000.0001) OPTIM_READPARMS: finished reading data.optim
(PID.TID 0000.0001) CTRL_READPARMS: opening data.ctrl
(PID.TID 0000.0001)  OPEN_COPY_DATA_FILE: opening file data.ctrl
(PID.TID 0000.0001) // =======================================================
(PID.TID 0000.0001) // Parameter file "data.ctrl"
(PID.TID 0000.0001) // =======================================================
(PID.TID 0000.0001) ># *********************
(PID.TID 0000.0001) ># ECCO controlvariables
(PID.TID 0000.0001) ># *********************
(PID.TID 0000.0001) > &ctrl_nml
(PID.TID 0000.0001) >#
(PID.TID 0000.0001) > doSinglePrecTapelev=.TRUE.,
(PID.TID 0000.0001) > ctrlSmoothCorrel2D=.TRUE.,
(PID.TID 0000.0001) > ctrlSmoothCorrel3D=.TRUE.,
(PID.TID 0000.0001) >  ctrlUseGen=.TRUE.,
(PID.TID 0000.0001) >#to start from given xx*00.data files
(PID.TID 0000.0001) >  doinitxx = .FALSE.,
(PID.TID 0000.0001) >  doMainUnpack = .FALSE.,
(PID.TID 0000.0001) >#to start from given ecco_ctrl... files
(PID.TID 0000.0001) ># doinitxx = .FALSE.,
(PID.TID 0000.0001) >#
(PID.TID 0000.0001) >#doPackDiag = .TRUE.,
(PID.TID 0000.0001) > forcingPrecond=1.,
(PID.TID 0000.0001) >/
(PID.TID 0000.0001) >
(PID.TID 0000.0001) >#
(PID.TID 0000.0001) ># *********************
(PID.TID 0000.0001) ># names for ctrl_pack/unpack
(PID.TID 0000.0001) ># *********************
(PID.TID 0000.0001) > &ctrl_packnames
(PID.TID 0000.0001) > /
(PID.TID 0000.0001) >#
(PID.TID 0000.0001) ># *********************
(PID.TID 0000.0001) ># names for CTRL_GENARR, CTRL_GENTIM
(PID.TID 0000.0001) ># *********************
(PID.TID 0000.0001) > &CTRL_NML_GENARR
(PID.TID 0000.0001) >#
(PID.TID 0000.0001) > xx_genarr2d_weight(1) = 'SSH_weights_nonseasonal_rms_areascaled.bin',
(PID.TID 0000.0001) > xx_genarr2d_file(1)='xx_etan',
(PID.TID 0000.0001) > xx_genarr2d_bounds(1:5,1)=-9.0,-8.9,8.9,9.0,0.,
(PID.TID 0000.0001) > xx_genarr2d_preproc(1,1)='WC01',
(PID.TID 0000.0001) > xx_genarr2d_preproc_i(1,1)=1,
(PID.TID 0000.0001) > mult_genarr2d(1) = 1.,
(PID.TID 0000.0001) >#
(PID.TID 0000.0001) > xx_genarr3d_weight(1) = 'Theta_weights_nonseasonal_rmsv2_areascaled.bin',
(PID.TID 0000.0001) > xx_genarr3d_file(1)='xx_theta',
(PID.TID 0000.0001) > xx_genarr3d_bounds(1:5,1)=-2.0,-1.9,39.,40.,0.,
(PID.TID 0000.0001) > xx_genarr3d_preproc(1,1)='WC01',
(PID.TID 0000.0001) > xx_genarr3d_preproc_i(1,1)=1,
(PID.TID 0000.0001) > mult_genarr3d(1) = 1.,
(PID.TID 0000.0001) >#
(PID.TID 0000.0001) > xx_genarr3d_weight(2) = 'Salt_weights_nonseasonal_rmsv2_areascaled.bin',
(PID.TID 0000.0001) > xx_genarr3d_file(2)='xx_salt',
(PID.TID 0000.0001) > xx_genarr3d_bounds(1:5,2)=20.,20.5,40.5,41.,0.,
(PID.TID 0000.0001) > xx_genarr3d_preproc(1,2)='WC01',
(PID.TID 0000.0001) > xx_genarr3d_preproc_i(1,2)=1,
(PID.TID 0000.0001) > mult_genarr3d(2) = 1.,
(PID.TID 0000.0001) >#
(PID.TID 0000.0001) > xx_genarr3d_weight(3) = 'r2.wkapgmFldv2.data',
(PID.TID 0000.0001) > xx_genarr3d_file(3)='xx_kapgm',
(PID.TID 0000.0001) > xx_genarr3d_bounds(1:5,3)=1.E2,2.E2,0.9E4,1.E4,0.,
(PID.TID 0000.0001) > xx_genarr3d_preproc(1,3)='WC01',
(PID.TID 0000.0001) > xx_genarr3d_preproc_i(1,3)=1,
(PID.TID 0000.0001) > mult_genarr3d(3) = 1.,
(PID.TID 0000.0001) >#
(PID.TID 0000.0001) > xx_genarr3d_weight(4) = 'r2.wkaprediFldv2.data',
(PID.TID 0000.0001) > xx_genarr3d_file(4)='xx_kapredi',
(PID.TID 0000.0001) > xx_genarr3d_bounds(1:5,4)=1.E2,2.E2,0.9E4,1.E4,0.,
(PID.TID 0000.0001) > xx_genarr3d_preproc(1,4)='WC01',
(PID.TID 0000.0001) > xx_genarr3d_preproc_i(1,4)=1,
(PID.TID 0000.0001) > mult_genarr3d(4) = 1.,
(PID.TID 0000.0001) >#
(PID.TID 0000.0001) > xx_genarr3d_weight(5) = 'r2.wdiffkrFldv2.data',
(PID.TID 0000.0001) > xx_genarr3d_file(5)='xx_diffkr',
(PID.TID 0000.0001) > xx_genarr3d_bounds(1:5,5)=1.E-6,2.E-6,4.E-4,5.E-4,0.,
(PID.TID 0000.0001) > xx_genarr3d_preproc(1,5)='WC01',
(PID.TID 0000.0001) > xx_genarr3d_preproc_i(1,5)=1,
(PID.TID 0000.0001) > mult_genarr3d(5) = 1.,
(PID.TID 0000.0001) >#
(PID.TID 0000.0001) > xx_genarr3d_weight(6) = 'Uvel_weights_nonseasonal_rmsv2_areascaled.bin',
(PID.TID 0000.0001) > xx_genarr3d_file(6)='xx_uvel',
(PID.TID 0000.0001) > xx_genarr3d_bounds(1:5,6)=-3.,-2.9, 2.9,3.,0.,
(PID.TID 0000.0001) > xx_genarr3d_preproc(1,6)='WC01',
(PID.TID 0000.0001) > xx_genarr3d_preproc_i(1,6)=1,
(PID.TID 0000.0001) > mult_genarr3d(6) = 1.,
(PID.TID 0000.0001) >#
(PID.TID 0000.0001) > xx_genarr3d_weight(7) = 'Vvel_weights_nonseasonal_rmsv2_areascaled.bin',
(PID.TID 0000.0001) > xx_genarr3d_file(7)='xx_vvel',
(PID.TID 0000.0001) > xx_genarr3d_bounds(1:5,7)=-3.,-2.9, 2.9,3.,0.,
(PID.TID 0000.0001) > xx_genarr3d_preproc(1,7)='WC01',
(PID.TID 0000.0001) > xx_genarr3d_preproc_i(1,7)=1,
(PID.TID 0000.0001) > mult_genarr3d(7) = 1.,
(PID.TID 0000.0001) >#
(PID.TID 0000.0001) > /
(PID.TID 0000.0001) 
(PID.TID 0000.0001) CTRL_READPARMS: finished reading data.ctrl
(PID.TID 0000.0001) COST_READPARMS: opening data.cost
(PID.TID 0000.0001)  OPEN_COPY_DATA_FILE: opening file data.cost
(PID.TID 0000.0001) // =======================================================
(PID.TID 0000.0001) // Parameter file "data.cost"
(PID.TID 0000.0001) // =======================================================
(PID.TID 0000.0001) >#
(PID.TID 0000.0001) >#
(PID.TID 0000.0001) ># ******************
(PID.TID 0000.0001) ># cost function
(PID.TID 0000.0001) ># ******************
(PID.TID 0000.0001) > &COST_NML
(PID.TID 0000.0001) > /
(PID.TID 0000.0001) 
(PID.TID 0000.0001) COST_READPARMS: finished reading data.cost
(PID.TID 0000.0001) SMOOTH_READPARMS: opening data.smooth
(PID.TID 0000.0001)  OPEN_COPY_DATA_FILE: opening file data.smooth
(PID.TID 0000.0001) // =======================================================
(PID.TID 0000.0001) // Parameter file "data.smooth"
(PID.TID 0000.0001) // =======================================================
(PID.TID 0000.0001) > &SMOOTH_NML
(PID.TID 0000.0001) > smooth2Dnbt(1)=300
(PID.TID 0000.0001) > smooth2Dtype(1)=1
(PID.TID 0000.0001) > smooth2Dsize(1)=2
(PID.TID 0000.0001) > smooth2Dfilter(1)=0
(PID.TID 0000.0001) > smooth3Dnbt(1)=300
(PID.TID 0000.0001) > smooth3DtypeH(1)=1
(PID.TID 0000.0001) > smooth3DsizeH(1)=3
(PID.TID 0000.0001) > smooth3DtypeZ(1)=1
(PID.TID 0000.0001) > smooth3DsizeZ(1)=3
(PID.TID 0000.0001) > smooth3Dfilter(1)=0
(PID.TID 0000.0001) > /
(PID.TID 0000.0001) 
(PID.TID 0000.0001) SMOOTH_READPARMS: finished reading data.smooth
(PID.TID 0000.0001) // =======================================================
(PID.TID 0000.0001) // pkg/smooth configuration
(PID.TID 0000.0001) // =======================================================
(PID.TID 0000.0001) smooth 2D parameters:  1   300    0.    0.
(PID.TID 0000.0001) smooth 3D parameters:  1   300    0.    0.    0.
(PID.TID 0000.0001) // =======================================================
(PID.TID 0000.0001) // End of pkg/smooth config. summary
(PID.TID 0000.0001) // =======================================================
(PID.TID 0000.0001) 
(PID.TID 0000.0001) ECCO_READPARMS: opening data.ecco
(PID.TID 0000.0001)  OPEN_COPY_DATA_FILE: opening file data.ecco
(PID.TID 0000.0001) // =======================================================
(PID.TID 0000.0001) // Parameter file "data.ecco"
(PID.TID 0000.0001) // =======================================================
(PID.TID 0000.0001) >#
(PID.TID 0000.0001) >#
(PID.TID 0000.0001) ># ******************
(PID.TID 0000.0001) ># ECCO cost function
(PID.TID 0000.0001) ># ******************
(PID.TID 0000.0001) >#
(PID.TID 0000.0001) > &ECCO_COST_NML
(PID.TID 0000.0001) >#
(PID.TID 0000.0001) > data_errfile    = 'data.err',
(PID.TID 0000.0001) > temp0errfile     = 'Theta_sigma_smoothed_method_02_masked_merged_capped_areascaled.bin',
(PID.TID 0000.0001) > salt0errfile     = 'Salt_sigma_smoothed_method_02_masked_merged_capped_areascaled.bin',
(PID.TID 0000.0001) > cost_iprec  = 32,
(PID.TID 0000.0001) > cost_yftype = 'RL',
(PID.TID 0000.0001) >#
(PID.TID 0000.0001) > /
(PID.TID 0000.0001) >#
(PID.TID 0000.0001) > &ECCO_GENCOST_NML
(PID.TID 0000.0001) >#
(PID.TID 0000.0001) >  gencost_avgperiod(1)  = 'day',
(PID.TID 0000.0001) >  gencost_barfile(1) = 'gbar_area',
(PID.TID 0000.0001) >  gencost_datafile(1) = 'NOAA_NSIDC_DAILY_v3b_MAPPED_TO_LLC90',
(PID.TID 0000.0001) >  gencost_errfile(1) = 'sigma_iceconc_eccollc_coastalmask_areascaled.bin',
(PID.TID 0000.0001) >  gencost_name(1) = 'siv4-conc',
(PID.TID 0000.0001) >  gencost_spmin(1) = -999.,
(PID.TID 0000.0001) >  gencost_spmax(1) = 999.,
(PID.TID 0000.0001) >  gencost_spzero(1) = -9999.,
(PID.TID 0000.0001) >  gencost_outputlevel(1)=1,
(PID.TID 0000.0001) >  mult_gencost(1) = 0.,
(PID.TID 0000.0001) >#
(PID.TID 0000.0001) >  gencost_avgperiod(2)  = 'day',
(PID.TID 0000.0001) >  gencost_barfile(2) = 'gbar_deconc',
(PID.TID 0000.0001) >  gencost_name(2) = 'siv4-deconc',
(PID.TID 0000.0001) >  gencost_datafile(2) = 'NOAA_NSIDC_DAILY_v3b_MAPPED_TO_LLC90',
(PID.TID 0000.0001) >  gencost_errfile(2) = 'seaiceproxy_sigma_coastalmask_areascaled.bin',
(PID.TID 0000.0001) >  gencost_spmin(2) = -999.,
(PID.TID 0000.0001) >  gencost_spmax(2) = 999.,
(PID.TID 0000.0001) >  gencost_spzero(2) = -9999.,
(PID.TID 0000.0001) >  gencost_outputlevel(2)=1,
(PID.TID 0000.0001) >  mult_gencost(2) = 0.071,
(PID.TID 0000.0001) >#
(PID.TID 0000.0001) >  gencost_avgperiod(3)  = 'day',
(PID.TID 0000.0001) >  gencost_barfile(3) = 'gbar_exconc',
(PID.TID 0000.0001) >  gencost_name(3) = 'siv4-exconc',
(PID.TID 0000.0001) >  gencost_datafile(3) = 'NOAA_NSIDC_DAILY_v3b_MAPPED_TO_LLC90',
(PID.TID 0000.0001) >  gencost_errfile(3) = 'seaiceproxy_sigma_coastalmask_areascaled.bin',
(PID.TID 0000.0001) >  gencost_spmin(3) = -999.,
(PID.TID 0000.0001) >  gencost_spmax(3) = 999.,
(PID.TID 0000.0001) >  gencost_spzero(3) = -9999.,
(PID.TID 0000.0001) >  gencost_outputlevel(3)=1,
(PID.TID 0000.0001) >  mult_gencost(3) = 0.,
(PID.TID 0000.0001) >#
(PID.TID 0000.0001) >  gencost_avgperiod(4)  = 'month',
(PID.TID 0000.0001) >  gencost_barfile(4) = 'm_sstmon',
(PID.TID 0000.0001) >  gencost_datafile(4) = 'reynolds_oiv2_r1_mar2018_simasked',
(PID.TID 0000.0001) >  gencost_errfile(4) = 'sigma_half_areascaled.bin',
(PID.TID 0000.0001) >  gencost_name(4) = 'sst-reynoldsmean',
(PID.TID 0000.0001) >  gencost_spmin(4) = -1.8,
(PID.TID 0000.0001) >  gencost_spmax(4) = 40.,
(PID.TID 0000.0001) >  gencost_spzero(4) = 0.,
(PID.TID 0000.0001) >  gencost_preproc(1,4)='mean',
(PID.TID 0000.0001) >  gencost_outputlevel(4)=1,
(PID.TID 0000.0001) >  mult_gencost(4) = 1.,
(PID.TID 0000.0001) >#
(PID.TID 0000.0001) >  gencost_avgperiod(5)  = 'month',
(PID.TID 0000.0001) >  gencost_barfile(5) = 'm_sstmon',
(PID.TID 0000.0001) >  gencost_datafile(5) = 'reynolds_oiv2_r1_mar2018_simasked',
(PID.TID 0000.0001) >  gencost_errfile(5) = 'sigma_half_areascaled.bin',
(PID.TID 0000.0001) >  gencost_name(5) = 'sst-reynoldsanom',
(PID.TID 0000.0001) >  gencost_spmin(5) = -1.8,
(PID.TID 0000.0001) >  gencost_spmax(5) = 40.,
(PID.TID 0000.0001) >  gencost_spzero(5) = 0.,
(PID.TID 0000.0001) >  gencost_preproc(1,5)='anom',
(PID.TID 0000.0001) >  gencost_outputlevel(5)=1,
(PID.TID 0000.0001) >  mult_gencost(5) = 1.,
(PID.TID 0000.0001) >
(PID.TID 0000.0001) >#
(PID.TID 0000.0001) ># gencost_avgperiod(5)  = 'month',
(PID.TID 0000.0001) ># gencost_barfile(5) = 'sstmon',
(PID.TID 0000.0001) ># gencost_datafile(5) = 'tmi_amsre_oisst_r1',
(PID.TID 0000.0001) ># gencost_errfile(5) = 'sigma_half_areascaled.bin',
(PID.TID 0000.0001) ># gencost_name(5) = 'sst-tmi-amsre',
(PID.TID 0000.0001) ># gencost_startdate1(5) = 19980101,
(PID.TID 0000.0001) ># gencost_startdate2(5)= 00000,
(PID.TID 0000.0001) ># gencost_spmin(5) = -1.8,
(PID.TID 0000.0001) ># gencost_spmax(5) = 40.,
(PID.TID 0000.0001) ># gencost_spzero(5) = 0.,
(PID.TID 0000.0001) ># gencost_outputlevel(5)=1,
(PID.TID 0000.0001) ># mult_gencost(5) = 0.,
(PID.TID 0000.0001) >#
(PID.TID 0000.0001) >  gencost_avgperiod(6)  = 'month',
(PID.TID 0000.0001) >  gencost_barfile(6) = 'm_bp_nopabarmon',
(PID.TID 0000.0001) >  gencost_datafile(6) = 'GRACE_jpl_rl05m_20180122',
(PID.TID 0000.0001) >  gencost_errfile(6) = 'GRACE_jpl_rl05m_20180122_err_areascaled',
(PID.TID 0000.0001) >  gencost_name(6) = 'bpv4-grace',
(PID.TID 0000.0001) >  gencost_outputlevel(6)=1,
(PID.TID 0000.0001) >  mult_gencost(6) = 1.,
(PID.TID 0000.0001) >#
(PID.TID 0000.0001) >  gencost_avgperiod(7)  = 'month',
(PID.TID 0000.0001) >  gencost_barfile(7) = 'm_thetamon',
(PID.TID 0000.0001) >  gencost_datafile(7) = 'T_monthly_woa09_highlatnearsurface_masked',
(PID.TID 0000.0001) >  gencost_errfile(7) = 'Theta_sigma_smoothed_method_02_masked_merged_capped_areascaled.bin',
(PID.TID 0000.0001) >#  gencost_name(7) = 'thetaclim',
(PID.TID 0000.0001) >  gencost_name(7) = 'thetamean',
(PID.TID 0000.0001) >  gencost_spmin(7) = -1.8,
(PID.TID 0000.0001) >  gencost_spmax(7) = 40.,
(PID.TID 0000.0001) >  gencost_spzero(7) = 0.,
(PID.TID 0000.0001) >  gencost_is3d(7)=.TRUE.,
(PID.TID 0000.0001) >  gencost_preproc(1,7)='mean',
(PID.TID 0000.0001) >  gencost_outputlevel(7)=1,
(PID.TID 0000.0001) >  mult_gencost(7) = 1.,
(PID.TID 0000.0001) >#
(PID.TID 0000.0001) >  gencost_avgperiod(8)  = 'month',
(PID.TID 0000.0001) >  gencost_barfile(8) = 'm_saltmon',
(PID.TID 0000.0001) >  gencost_datafile(8) = 'S_monthly_woa09_highlatnearsurface_masked',
(PID.TID 0000.0001) >  gencost_errfile(8) = 'Salt_sigma_smoothed_method_02_masked_merged_capped_areascaled.bin',
(PID.TID 0000.0001) >#  gencost_name(8) = 'saltclim',
(PID.TID 0000.0001) >  gencost_name(8) = 'saltmean',
(PID.TID 0000.0001) >  gencost_spmin(8) = 25.,
(PID.TID 0000.0001) >  gencost_spmax(8) = 40.,
(PID.TID 0000.0001) >  gencost_spzero(8) = 0.,
(PID.TID 0000.0001) >  gencost_is3d(8)=.TRUE.,
(PID.TID 0000.0001) >  gencost_preproc(1,8)='mean',
(PID.TID 0000.0001) >  gencost_outputlevel(8)=1,
(PID.TID 0000.0001) >  mult_gencost(8) = 1.,
(PID.TID 0000.0001) >#
(PID.TID 0000.0001) > gencost_datafile(11) = 'mdt2_dtu17.bin',
(PID.TID 0000.0001) > gencost_startdate1(11) = 19930101,
(PID.TID 0000.0001) > gencost_startdate2(11) = 00000,
(PID.TID 0000.0001) > gencost_enddate1(11) = 20171231,
(PID.TID 0000.0001) > gencost_enddate2(11) = 00000,
(PID.TID 0000.0001) > gencost_errfile(11) = 'mdt_dtu13_error_m_areascaled.bin',
(PID.TID 0000.0001) > gencost_name(11) = 'sshv4-mdt',
(PID.TID 0000.0001) > gencost_posproc(1,11)='smooth',
(PID.TID 0000.0001) > gencost_posproc_c(1,11)='sshv4_scale_1p5points.bin',
(PID.TID 0000.0001) > gencost_posproc_i(1,11)=300,
(PID.TID 0000.0001) ># gencost_scalefile(11) = 'sshv4_scale_1p5points.bin',
(PID.TID 0000.0001) > gencost_outputlevel(11)=1,
(PID.TID 0000.0001) > mult_gencost(11) = 1.,
(PID.TID 0000.0001) >#
(PID.TID 0000.0001) > gencost_barfile(12) = 'm_eta_dynday',
(PID.TID 0000.0001) > gencost_datafile(12) = 'RADS_TJ_mar2018',
(PID.TID 0000.0001) > gencost_startdate1(12) = 19920101,
(PID.TID 0000.0001) > gencost_startdate2(12) = 00000,
(PID.TID 0000.0001) > gencost_avgperiod(12)  = 'day',
(PID.TID 0000.0001) > gencost_errfile(12) = 'slaerr_gridscale_r5_areascaled.err',
(PID.TID 0000.0001) > gencost_name(12) = 'sshv4-tp',
(PID.TID 0000.0001) > gencost_outputlevel(12)=1,
(PID.TID 0000.0001) > mult_gencost(12) = 0.,
(PID.TID 0000.0001) >#
(PID.TID 0000.0001) > gencost_datafile(13) = 'RADS_ERS_ENV_SA_mar2018',
(PID.TID 0000.0001) > gencost_startdate1(13) = 19920101,
(PID.TID 0000.0001) > gencost_startdate2(13) = 00000,
(PID.TID 0000.0001) > gencost_avgperiod(13)  = 'day',
(PID.TID 0000.0001) > gencost_errfile(13) = 'slaerr_gridscale_r5_areascaled.err',
(PID.TID 0000.0001) > gencost_name(13) = 'sshv4-ers',
(PID.TID 0000.0001) > gencost_outputlevel(13)=1,
(PID.TID 0000.0001) > mult_gencost(13) = 0.,
(PID.TID 0000.0001) >#
(PID.TID 0000.0001) > gencost_datafile(14) = 'RADS_GFO_C2_mar2018',
(PID.TID 0000.0001) > gencost_startdate1(14) = 19920101,
(PID.TID 0000.0001) > gencost_startdate2(14) = 00000,
(PID.TID 0000.0001) > gencost_avgperiod(14)  = 'day',
(PID.TID 0000.0001) > gencost_errfile(14) = 'slaerr_gridscale_r5_areascaled.err',
(PID.TID 0000.0001) > gencost_name(14) = 'sshv4-gfo',
(PID.TID 0000.0001) > gencost_outputlevel(14)=1,
(PID.TID 0000.0001) > mult_gencost(14) = 0.,
(PID.TID 0000.0001) >#
(PID.TID 0000.0001) > gencost_errfile(15) = 'slaerr_largescale_r5_areascaled.err',
(PID.TID 0000.0001) > gencost_name(15) = 'sshv4-lsc',
(PID.TID 0000.0001) >#gencost_scalefile(15) = 'sshv4_scale_3points.bin',
(PID.TID 0000.0001) > gencost_posproc(1,15)='smooth',
(PID.TID 0000.0001) > gencost_posproc_c(1,15)='sshv4_scale_3points.bin',
(PID.TID 0000.0001) > gencost_posproc_i(1,15)=300,
(PID.TID 0000.0001) > gencost_outputlevel(15)=1,
(PID.TID 0000.0001) > mult_gencost(15) = 0.001,
(PID.TID 0000.0001) >#
(PID.TID 0000.0001) >#gencost_name(16) = 'sshv4-gmsl',
(PID.TID 0000.0001) >#gencost_outputlevel(16)=1,
(PID.TID 0000.0001) >#mult_gencost(16) = 0.,
(PID.TID 0000.0001) >#
(PID.TID 0000.0001) >  gencost_avgperiod(17)  = 'month',
(PID.TID 0000.0001) >  gencost_barfile(17) = 'm_thetamon',
(PID.TID 0000.0001) >  gencost_datafile(17) = 'T_monthly_woa09_highlatnearsurface_masked',
(PID.TID 0000.0001) >  gencost_errfile(17) = 'Theta_sigma_smoothed_method_02_masked_merged_capped_areascaled.bin',
(PID.TID 0000.0001) >#  gencost_name(17) = 'thetaclim',
(PID.TID 0000.0001) >  gencost_name(17) = 'thetaanom',
(PID.TID 0000.0001) >  gencost_spmin(17) = -1.8,
(PID.TID 0000.0001) >  gencost_spmax(17) = 40.,
(PID.TID 0000.0001) >  gencost_spzero(17) = 0.,
(PID.TID 0000.0001) >  gencost_is3d(17)=.TRUE.,
(PID.TID 0000.0001) >  gencost_preproc(1,17)='clim',
(PID.TID 0000.0001) >  gencost_preproc_i(1,17)=12,
(PID.TID 0000.0001) >  gencost_preproc(2,17)='anom',
(PID.TID 0000.0001) >  gencost_outputlevel(17)=1,
(PID.TID 0000.0001) >  mult_gencost(17) = 1.,
(PID.TID 0000.0001) >#
(PID.TID 0000.0001) >  gencost_avgperiod(18)  = 'month',
(PID.TID 0000.0001) >  gencost_barfile(18) = 'm_saltmon',
(PID.TID 0000.0001) >  gencost_datafile(18) = 'S_monthly_woa09_highlatnearsurface_masked',
(PID.TID 0000.0001) >  gencost_errfile(18) = 'Salt_sigma_smoothed_method_02_masked_merged_capped_areascaled.bin',
(PID.TID 0000.0001) >#  gencost_name(18) = 'saltclim',
(PID.TID 0000.0001) >  gencost_name(18) = 'saltanom',
(PID.TID 0000.0001) >  gencost_spmin(18) = 25.,
(PID.TID 0000.0001) >  gencost_spmax(18) = 40.,
(PID.TID 0000.0001) >  gencost_spzero(18) = 0.,
(PID.TID 0000.0001) >  gencost_is3d(18)=.TRUE.,
(PID.TID 0000.0001) >  gencost_preproc(1,18)='clim',
(PID.TID 0000.0001) >  gencost_preproc_i(1,18)=12,
(PID.TID 0000.0001) >  gencost_preproc(2,18)='anom',
(PID.TID 0000.0001) >  gencost_outputlevel(18)=1,
(PID.TID 0000.0001) >  mult_gencost(18) = 1.,
(PID.TID 0000.0001) >#
(PID.TID 0000.0001) >  gencost_avgperiod(19)  = 'month',
(PID.TID 0000.0001) >  gencost_barfile(19) = 'm_sssmon',
(PID.TID 0000.0001) >  gencost_datafile(19) = 'monthlyL3v5_20180129',
(PID.TID 0000.0001) >  gencost_errfile(19) = 'errStdAQ_v3_llc_090_floored_areascaled',
(PID.TID 0000.0001) >  gencost_name(19) = 'sss_AQanom',
(PID.TID 0000.0001) >  gencost_spmin(19) = 25.,
(PID.TID 0000.0001) >  gencost_spmax(19) = 40.,
(PID.TID 0000.0001) >  gencost_spzero(19) = 0.,
(PID.TID 0000.0001) >  gencost_preproc(1,19) = 'anom',
(PID.TID 0000.0001) ># gencost_is3d(19)=.TRUE.,
(PID.TID 0000.0001) >  gencost_outputlevel(19)=1,
(PID.TID 0000.0001) >  mult_gencost(19) = 1.,
(PID.TID 0000.0001) >#
(PID.TID 0000.0001) >  gencost_avgperiod(20)  = 'month',
(PID.TID 0000.0001) >  gencost_barfile(20) = 'm_sssmon',
(PID.TID 0000.0001) >  gencost_datafile(20) = 'monthlyL3v5_20180129',
(PID.TID 0000.0001) >  gencost_errfile(20) = 'biasStdAQ_v3_llc_090_floored_areascaled',
(PID.TID 0000.0001) >  gencost_name(20) = 'sss_AQmean',
(PID.TID 0000.0001) >  gencost_spmin(20) = 25.,
(PID.TID 0000.0001) >  gencost_spmax(20) = 40.,
(PID.TID 0000.0001) >  gencost_spzero(20) = 0.,
(PID.TID 0000.0001) >  gencost_preproc(1,20) = 'mean',
(PID.TID 0000.0001) ># gencost_is3d(20)=.TRUE.,
(PID.TID 0000.0001) >  gencost_outputlevel(20)=1,
(PID.TID 0000.0001) >  mult_gencost(20) = 1.,
(PID.TID 0000.0001) >#
(PID.TID 0000.0001) >  gencost_avgperiod(21)  = 'month',
(PID.TID 0000.0001) >  gencost_barfile(21) = 'm_bp_nopabarmon',
(PID.TID 0000.0001) >  gencost_datafile(21) = 'GRACE_jpl_rl05m_20180122_SpatialMean.asc',
(PID.TID 0000.0001) >  gencost_name(21) = 'gmbp',
(PID.TID 0000.0001) >  gencost_wei1d(21) = 0.1583,
(PID.TID 0000.0001) >  gencost_spmin(21) = -990.,
(PID.TID 0000.0001) >  gencost_spmax(21) = 990.,
(PID.TID 0000.0001) >  gencost_spzero(21) = 0.,
(PID.TID 0000.0001) >  gencost_is1d(21)=.TRUE.,
(PID.TID 0000.0001) >  gencost_outputlevel(21)=1,
(PID.TID 0000.0001) >  mult_gencost(21) = 1.,
(PID.TID 0000.0001) >#
(PID.TID 0000.0001) >  gencost_avgperiod(22)  = 'month',
(PID.TID 0000.0001) >  gencost_barfile(22) = 'm_eta_dynmon',
(PID.TID 0000.0001) >  gencost_datafile(22) = '20180228_ensemble_average_gmsl_ref.asc',
(PID.TID 0000.0001) >  gencost_name(22) = 'gmsl',
(PID.TID 0000.0001) >  gencost_wei1d(22) = 0.00382,
(PID.TID 0000.0001) >  gencost_spmin(22) = -990.,
(PID.TID 0000.0001) >  gencost_spmax(22) = 990.,
(PID.TID 0000.0001) >  gencost_spzero(22) = 0.,
(PID.TID 0000.0001) >  gencost_is1d(22)=.TRUE.,
(PID.TID 0000.0001) >  gencost_outputlevel(22)=1,
(PID.TID 0000.0001) >  mult_gencost(22) = 1.,
(PID.TID 0000.0001) >#
(PID.TID 0000.0001) >  gencost_barfile(27) = 'm_etaday',
(PID.TID 0000.0001) >  gencost_datafile(27) = 'RADS_TJ_mar2018',
(PID.TID 0000.0001) >  gencost_startdate1(27) = 19920101,
(PID.TID 0000.0001) >  gencost_startdate2(27) = 00000,
(PID.TID 0000.0001) >  gencost_avgperiod(27)  = 'day',
(PID.TID 0000.0001) >  gencost_errfile(27) = 'slaerr_gridscale_r5_areascaled.err',
(PID.TID 0000.0001) >  gencost_spmin(27) = -990.,
(PID.TID 0000.0001) >  gencost_spmax(27) = 990.,
(PID.TID 0000.0001) >  gencost_spzero(27) = 0.,
(PID.TID 0000.0001) >  gencost_outputlevel(27)=1,
(PID.TID 0000.0001) >  mult_gencost(27) = 0.,
(PID.TID 0000.0001) >#
(PID.TID 0000.0001) >  gencost_avgperiod(28)  = 'month',
(PID.TID 0000.0001) >  gencost_barfile(28) = 'm_etamon',
(PID.TID 0000.0001) >  gencost_datafile(28) = '20180228_ensemble_average_gmsl_ref.asc',
(PID.TID 0000.0001) >  gencost_wei1d(28) = 0.00382,
(PID.TID 0000.0001) >  gencost_spmin(28) = -990.,
(PID.TID 0000.0001) >  gencost_spmax(28) = 990.,
(PID.TID 0000.0001) >  gencost_spzero(28) = 0.,
(PID.TID 0000.0001) >  gencost_is1d(28)=.TRUE.,
(PID.TID 0000.0001) >  gencost_outputlevel(28)=1,
(PID.TID 0000.0001) >  mult_gencost(28) = 0.,
(PID.TID 0000.0001) >#
(PID.TID 0000.0001) >  gencost_avgperiod(29)  = 'month',
(PID.TID 0000.0001) >  gencost_barfile(29) = 'm_bpmon',
(PID.TID 0000.0001) >  gencost_datafile(29) = 'GRACE_jpl_rl05m_20180122_SpatialMean.asc',
(PID.TID 0000.0001) >  gencost_wei1d(29) = 0.1583,
(PID.TID 0000.0001) >  gencost_spmin(29) = -990.,
(PID.TID 0000.0001) >  gencost_spmax(29) = 990.,
(PID.TID 0000.0001) >  gencost_spzero(29) = 0.,
(PID.TID 0000.0001) >  gencost_is1d(29)=.TRUE.,
(PID.TID 0000.0001) >  gencost_outputlevel(29)=1,
(PID.TID 0000.0001) >  mult_gencost(29) = 0.,
(PID.TID 0000.0001) >#
(PID.TID 0000.0001) >  gencost_avgperiod(30)  = 'day',
(PID.TID 0000.0001) >  gencost_barfile(30) = 'm_bpday',
(PID.TID 0000.0001) >  gencost_datafile(30) = 'GRACE_fake_daily',
(PID.TID 0000.0001) >  gencost_errfile(30) = 'GRACE_jpl_rl05m_20180122_err_areascaled',
(PID.TID 0000.0001) >  gencost_spmin(30) = -990.,
(PID.TID 0000.0001) >  gencost_spmax(30) = 990.,
(PID.TID 0000.0001) >  gencost_spzero(30) = 0.,
(PID.TID 0000.0001) >  gencost_outputlevel(30)=1,
(PID.TID 0000.0001) >  mult_gencost(30) = 0.,
(PID.TID 0000.0001) >#
(PID.TID 0000.0001) >  gencost_avgperiod(31)  = 'day',
(PID.TID 0000.0001) >  gencost_barfile(31) = 'm_bp_nopabarday',
(PID.TID 0000.0001) >  gencost_datafile(31) = 'GRACE_fake_daily'
(PID.TID 0000.0001) >  gencost_errfile(31) = 'GRACE_jpl_rl05m_20180122_err_areascaled',
(PID.TID 0000.0001) >  gencost_spmin(31) = -990.,
(PID.TID 0000.0001) >  gencost_spmax(31) = 990.,
(PID.TID 0000.0001) >  gencost_spzero(31) = 0.,
(PID.TID 0000.0001) >  gencost_outputlevel(31)=1,
(PID.TID 0000.0001) >  mult_gencost(31) = 0.,
(PID.TID 0000.0001) > /
(PID.TID 0000.0001) >#
(PID.TID 0000.0001) 
(PID.TID 0000.0001) ECCO_READPARMS: finished reading #1: ecco_cost_nml
(PID.TID 0000.0001) ECCO_READPARMS: finished reading #2: ecco_gencost_nml
(PID.TID 0000.0001) ECCO_READPARMS: done
(PID.TID 0000.0001)  SBO_READPARMS: opening data.sbo
(PID.TID 0000.0001)  OPEN_COPY_DATA_FILE: opening file data.sbo
(PID.TID 0000.0001) // =======================================================
(PID.TID 0000.0001) // Parameter file "data.sbo"
(PID.TID 0000.0001) // =======================================================
(PID.TID 0000.0001) >#
(PID.TID 0000.0001) ># *******************
(PID.TID 0000.0001) ># SBO Parameters
(PID.TID 0000.0001) ># *******************
(PID.TID 0000.0001) > &SBO_PARM01
(PID.TID 0000.0001) > /
(PID.TID 0000.0001) 
(PID.TID 0000.0001)  SBO_READPARMS: finished reading data.sbo
(PID.TID 0000.0001)  DIAGNOSTICS_READPARMS: opening data.diagnostics
(PID.TID 0000.0001)  OPEN_COPY_DATA_FILE: opening file data.diagnostics
(PID.TID 0000.0001) // =======================================================
(PID.TID 0000.0001) // Parameter file "data.diagnostics"
(PID.TID 0000.0001) // =======================================================
(PID.TID 0000.0001) ># Diagnostic Package Choices
(PID.TID 0000.0001) >#-----------------
(PID.TID 0000.0001) ># for each output-stream:
(PID.TID 0000.0001) >#  filename(n) : prefix of the output file name (only 8.c long) for outp.stream n
(PID.TID 0000.0001) >#  frequency(n):< 0 : write snap-shot output every multiple of |frequency| (iter)
(PID.TID 0000.0001) >#               > 0 : write time-average output every multiple of frequency (iter)
(PID.TID 0000.0001) >#  levels(:,n) : list of levels to write to file (Notes: declared as REAL)
(PID.TID 0000.0001) >#                 when this entry is missing, select all common levels of this list
(PID.TID 0000.0001) >#  fields(:,n) : list of diagnostics fields (8.c) (see "available_diagnostics" file
(PID.TID 0000.0001) >#                 for the list of all available diag. in this particular config)
(PID.TID 0000.0001) >#--------------------------------------------------------------------
(PID.TID 0000.0001) >#
(PID.TID 0000.0001) > &diagnostics_list
(PID.TID 0000.0001) >#
(PID.TID 0000.0001) >    dumpatlast = .TRUE.,
(PID.TID 0000.0001) >#---
(PID.TID 0000.0001) > frequency(1) = 2635200.0,
(PID.TID 0000.0001) > fields(1,1) = 'ADVr_SLT',
(PID.TID 0000.0001) > filename(1) = 'diags/ADVr_SLT_mon_mean/ADVr_SLT_mon_mean',
(PID.TID 0000.0001) >#---
(PID.TID 0000.0001) > frequency(2) = 2635200.0,
(PID.TID 0000.0001) > fields(1,2) = 'ADVr_TH',
(PID.TID 0000.0001) > filename(2) = 'diags/ADVr_TH_mon_mean/ADVr_TH_mon_mean',
(PID.TID 0000.0001) >#---
(PID.TID 0000.0001) > frequency(3) = 2635200.0,
(PID.TID 0000.0001) > fields(1,3) = 'ADVxHEFF',
(PID.TID 0000.0001) > filename(3) = 'diags/ADVxHEFF_mon_mean/ADVxHEFF_mon_mean',
(PID.TID 0000.0001) >#---
(PID.TID 0000.0001) > frequency(4) = 2635200.0,
(PID.TID 0000.0001) > fields(1,4) = 'ADVx_SLT',
(PID.TID 0000.0001) > filename(4) = 'diags/ADVx_SLT_mon_mean/ADVx_SLT_mon_mean',
(PID.TID 0000.0001) >#---
(PID.TID 0000.0001) > frequency(5) = 2635200.0,
(PID.TID 0000.0001) > fields(1,5) = 'ADVxSNOW',
(PID.TID 0000.0001) > filename(5) = 'diags/ADVxSNOW_mon_mean/ADVxSNOW_mon_mean',
(PID.TID 0000.0001) >#---
(PID.TID 0000.0001) > frequency(6) = 2635200.0,
(PID.TID 0000.0001) > fields(1,6) = 'ADVx_TH',
(PID.TID 0000.0001) > filename(6) = 'diags/ADVx_TH_mon_mean/ADVx_TH_mon_mean',
(PID.TID 0000.0001) >#---
(PID.TID 0000.0001) > frequency(7) = 2635200.0,
(PID.TID 0000.0001) > fields(1,7) = 'ADVyHEFF',
(PID.TID 0000.0001) > filename(7) = 'diags/ADVyHEFF_mon_mean/ADVyHEFF_mon_mean',
(PID.TID 0000.0001) >#---
(PID.TID 0000.0001) > frequency(8) = 2635200.0,
(PID.TID 0000.0001) > fields(1,8) = 'ADVy_SLT',
(PID.TID 0000.0001) > filename(8) = 'diags/ADVy_SLT_mon_mean/ADVy_SLT_mon_mean',
(PID.TID 0000.0001) >#---
(PID.TID 0000.0001) > frequency(9) = 2635200.0,
(PID.TID 0000.0001) > fields(1,9) = 'ADVySNOW',
(PID.TID 0000.0001) > filename(9) = 'diags/ADVySNOW_mon_mean/ADVySNOW_mon_mean',
(PID.TID 0000.0001) >#---
(PID.TID 0000.0001) > frequency(10) = 2635200.0,
(PID.TID 0000.0001) > fields(1,10) = 'ADVy_TH',
(PID.TID 0000.0001) > filename(10) = 'diags/ADVy_TH_mon_mean/ADVy_TH_mon_mean',
(PID.TID 0000.0001) >#---
(PID.TID 0000.0001) > frequency(11) = 2635200.0,
(PID.TID 0000.0001) > fields(1,11) = 'DFrE_SLT',
(PID.TID 0000.0001) > filename(11) = 'diags/DFrE_SLT_mon_mean/DFrE_SLT_mon_mean',
(PID.TID 0000.0001) >#---
(PID.TID 0000.0001) > frequency(12) = 2635200.0,
(PID.TID 0000.0001) > fields(1,12) = 'DFrE_TH',
(PID.TID 0000.0001) > filename(12) = 'diags/DFrE_TH_mon_mean/DFrE_TH_mon_mean',
(PID.TID 0000.0001) >#---
(PID.TID 0000.0001) > frequency(13) = 2635200.0,
(PID.TID 0000.0001) > fields(1,13) = 'DFrI_SLT',
(PID.TID 0000.0001) > filename(13) = 'diags/DFrI_SLT_mon_mean/DFrI_SLT_mon_mean',
(PID.TID 0000.0001) >#---
(PID.TID 0000.0001) > frequency(14) = 2635200.0,
(PID.TID 0000.0001) > fields(1,14) = 'DFrI_TH',
(PID.TID 0000.0001) > filename(14) = 'diags/DFrI_TH_mon_mean/DFrI_TH_mon_mean',
(PID.TID 0000.0001) >#---
(PID.TID 0000.0001) > frequency(15) = 2635200.0,
(PID.TID 0000.0001) > fields(1,15) = 'DFxEHEFF',
(PID.TID 0000.0001) > filename(15) = 'diags/DFxEHEFF_mon_mean/DFxEHEFF_mon_mean',
(PID.TID 0000.0001) >#---
(PID.TID 0000.0001) > frequency(16) = 2635200.0,
(PID.TID 0000.0001) > fields(1,16) = 'DFxE_SLT',
(PID.TID 0000.0001) > filename(16) = 'diags/DFxE_SLT_mon_mean/DFxE_SLT_mon_mean',
(PID.TID 0000.0001) >#---
(PID.TID 0000.0001) > frequency(17) = 2635200.0,
(PID.TID 0000.0001) > fields(1,17) = 'DFxESNOW',
(PID.TID 0000.0001) > filename(17) = 'diags/DFxESNOW_mon_mean/DFxESNOW_mon_mean',
(PID.TID 0000.0001) >#---
(PID.TID 0000.0001) > frequency(18) = 2635200.0,
(PID.TID 0000.0001) > fields(1,18) = 'DFxE_TH',
(PID.TID 0000.0001) > filename(18) = 'diags/DFxE_TH_mon_mean/DFxE_TH_mon_mean',
(PID.TID 0000.0001) >#---
(PID.TID 0000.0001) > frequency(19) = 2635200.0,
(PID.TID 0000.0001) > fields(1,19) = 'DFyEHEFF',
(PID.TID 0000.0001) > filename(19) = 'diags/DFyEHEFF_mon_mean/DFyEHEFF_mon_mean',
(PID.TID 0000.0001) >#---
(PID.TID 0000.0001) > frequency(20) = 2635200.0,
(PID.TID 0000.0001) > fields(1,20) = 'DFyE_SLT',
(PID.TID 0000.0001) > filename(20) = 'diags/DFyE_SLT_mon_mean/DFyE_SLT_mon_mean',
(PID.TID 0000.0001) >#---
(PID.TID 0000.0001) > frequency(21) = 2635200.0,
(PID.TID 0000.0001) > fields(1,21) = 'DFyESNOW',
(PID.TID 0000.0001) > filename(21) = 'diags/DFyESNOW_mon_mean/DFyESNOW_mon_mean',
(PID.TID 0000.0001) >#---
(PID.TID 0000.0001) > frequency(22) = 2635200.0,
(PID.TID 0000.0001) > fields(1,22) = 'DFyE_TH',
(PID.TID 0000.0001) > filename(22) = 'diags/DFyE_TH_mon_mean/DFyE_TH_mon_mean',
(PID.TID 0000.0001) >#---
(PID.TID 0000.0001) > frequency(23) = 2635200.0,
(PID.TID 0000.0001) > fields(1,23) = 'DRHODR',
(PID.TID 0000.0001) > filename(23) = 'diags/DRHODR_mon_mean/DRHODR_mon_mean',
(PID.TID 0000.0001) >#---
(PID.TID 0000.0001) > frequency(24) = 2635200.0,
(PID.TID 0000.0001) > fields(1,24) = 'ETAN',
(PID.TID 0000.0001) > filename(24) = 'diags/ETAN_mon_mean/ETAN_mon_mean',
(PID.TID 0000.0001) >#---
(PID.TID 0000.0001) > frequency(25) = 2635200.0,
(PID.TID 0000.0001) > fields(1,25) = 'EXFaqh',
(PID.TID 0000.0001) > filename(25) = 'diags/EXFaqh_mon_mean/EXFaqh_mon_mean',
(PID.TID 0000.0001) >#---
(PID.TID 0000.0001) > frequency(26) = 2635200.0,
(PID.TID 0000.0001) > fields(1,26) = 'EXFatemp',
(PID.TID 0000.0001) > filename(26) = 'diags/EXFatemp_mon_mean/EXFatemp_mon_mean',
(PID.TID 0000.0001) >#---
(PID.TID 0000.0001) > frequency(27) = 2635200.0,
(PID.TID 0000.0001) > fields(1,27) = 'EXFempmr',
(PID.TID 0000.0001) > filename(27) = 'diags/EXFempmr_mon_mean/EXFempmr_mon_mean',
(PID.TID 0000.0001) >#---
(PID.TID 0000.0001) > frequency(28) = 2635200.0,
(PID.TID 0000.0001) > fields(1,28) = 'EXFevap',
(PID.TID 0000.0001) > filename(28) = 'diags/EXFevap_mon_mean/EXFevap_mon_mean',
(PID.TID 0000.0001) >#---
(PID.TID 0000.0001) > frequency(29) = 2635200.0,
(PID.TID 0000.0001) > fields(1,29) = 'EXFhl',
(PID.TID 0000.0001) > filename(29) = 'diags/EXFhl_mon_mean/EXFhl_mon_mean',
(PID.TID 0000.0001) >#---
(PID.TID 0000.0001) > frequency(30) = 2635200.0,
(PID.TID 0000.0001) > fields(1,30) = 'EXFhs',
(PID.TID 0000.0001) > filename(30) = 'diags/EXFhs_mon_mean/EXFhs_mon_mean',
(PID.TID 0000.0001) >#---
(PID.TID 0000.0001) > frequency(31) = 2635200.0,
(PID.TID 0000.0001) > fields(1,31) = 'EXFlwdn',
(PID.TID 0000.0001) > filename(31) = 'diags/EXFlwdn_mon_mean/EXFlwdn_mon_mean',
(PID.TID 0000.0001) >#---
(PID.TID 0000.0001) > frequency(32) = 2635200.0,
(PID.TID 0000.0001) > fields(1,32) = 'EXFlwnet',
(PID.TID 0000.0001) > filename(32) = 'diags/EXFlwnet_mon_mean/EXFlwnet_mon_mean',
(PID.TID 0000.0001) >#---
(PID.TID 0000.0001) > frequency(33) = 2635200.0,
(PID.TID 0000.0001) > fields(1,33) = 'EXFpreci',
(PID.TID 0000.0001) > filename(33) = 'diags/EXFpreci_mon_mean/EXFpreci_mon_mean',
(PID.TID 0000.0001) >#---
(PID.TID 0000.0001) > frequency(34) = 2635200.0,
(PID.TID 0000.0001) > fields(1,34) = 'EXFqnet',
(PID.TID 0000.0001) > filename(34) = 'diags/EXFqnet_mon_mean/EXFqnet_mon_mean',
(PID.TID 0000.0001) >#---
(PID.TID 0000.0001) > frequency(35) = 2635200.0,
(PID.TID 0000.0001) > fields(1,35) = 'EXFroff',
(PID.TID 0000.0001) > filename(35) = 'diags/EXFroff_mon_mean/EXFroff_mon_mean',
(PID.TID 0000.0001) >#---
(PID.TID 0000.0001) > frequency(36) = 2635200.0,
(PID.TID 0000.0001) > fields(1,36) = 'EXFswdn',
(PID.TID 0000.0001) > filename(36) = 'diags/EXFswdn_mon_mean/EXFswdn_mon_mean',
(PID.TID 0000.0001) >#---
(PID.TID 0000.0001) > frequency(37) = 2635200.0,
(PID.TID 0000.0001) > fields(1,37) = 'EXFswnet',
(PID.TID 0000.0001) > filename(37) = 'diags/EXFswnet_mon_mean/EXFswnet_mon_mean',
(PID.TID 0000.0001) >#---
(PID.TID 0000.0001) > frequency(38) = 2635200.0,
(PID.TID 0000.0001) > fields(1,38) = 'EXFtaux',
(PID.TID 0000.0001) > filename(38) = 'diags/EXFtaux_mon_mean/EXFtaux_mon_mean',
(PID.TID 0000.0001) >#---
(PID.TID 0000.0001) > frequency(39) = 2635200.0,
(PID.TID 0000.0001) > fields(1,39) = 'EXFtauy',
(PID.TID 0000.0001) > filename(39) = 'diags/EXFtauy_mon_mean/EXFtauy_mon_mean',
(PID.TID 0000.0001) >#---
(PID.TID 0000.0001) > frequency(40) = 2635200.0,
(PID.TID 0000.0001) > fields(1,40) = 'EXFuwind',
(PID.TID 0000.0001) > filename(40) = 'diags/EXFuwind_mon_mean/EXFuwind_mon_mean',
(PID.TID 0000.0001) >#---
(PID.TID 0000.0001) > frequency(41) = 2635200.0,
(PID.TID 0000.0001) > fields(1,41) = 'EXFvwind',
(PID.TID 0000.0001) > filename(41) = 'diags/EXFvwind_mon_mean/EXFvwind_mon_mean',
(PID.TID 0000.0001) >#---
(PID.TID 0000.0001) > frequency(42) = 2635200.0,
(PID.TID 0000.0001) > fields(1,42) = 'EXFwspee',
(PID.TID 0000.0001) > filename(42) = 'diags/EXFwspee_mon_mean/EXFwspee_mon_mean',
(PID.TID 0000.0001) >#---
(PID.TID 0000.0001) > frequency(43) = 2635200.0,
(PID.TID 0000.0001) > fields(1,43) = 'GM_PsiX',
(PID.TID 0000.0001) > filename(43) = 'diags/GM_PsiX_mon_mean/GM_PsiX_mon_mean',
(PID.TID 0000.0001) >#---
(PID.TID 0000.0001) > frequency(44) = 2635200.0,
[...]
(PID.TID 0000.0001)  ploadbar=  1.01162630617138E+05
 cg2d: Sum(rhs),rhsMax =  -4.29001890708573E+01  2.38666856061997E+00
(PID.TID 0000.0001)  ploadbar=  1.01161559571141E+05
 cg2d: Sum(rhs),rhsMax =  -4.28894895680542E+01  2.38855585905091E+00
(PID.TID 0000.0001)  ploadbar=  1.01160488525144E+05
 cg2d: Sum(rhs),rhsMax =  -4.29062222602520E+01  2.38900405759481E+00
(PID.TID 0000.0001)  ploadbar=  1.01159417479147E+05
 cg2d: Sum(rhs),rhsMax =  -4.29593092001049E+01  2.38751405565713E+00
(PID.TID 0000.0001)  ploadbar=  1.01158346433150E+05
 cg2d: Sum(rhs),rhsMax =  -4.30297720923832E+01  2.38497325202244E+00
(PID.TID 0000.0001)  ploadbar=  1.01157941499399E+05
 cg2d: Sum(rhs),rhsMax =  -4.31091955860011E+01  2.38185701400991E+00
(PID.TID 0000.0001)  ploadbar=  1.01157536565649E+05
 cg2d: Sum(rhs),rhsMax =  -4.31946750175799E+01  2.37833032728826E+00
(PID.TID 0000.0001)  ploadbar=  1.01157131631899E+05
 cg2d: Sum(rhs),rhsMax =  -4.32827361757488E+01  2.37458184745802E+00
(PID.TID 0000.0001)  ploadbar=  1.01156726698148E+05
 cg2d: Sum(rhs),rhsMax =  -4.33716320748374E+01  2.37070130621755E+00
(PID.TID 0000.0001)  ploadbar=  1.01156321764398E+05
 cg2d: Sum(rhs),rhsMax =  -4.34593240680017E+01  2.36679458609099E+00
(PID.TID 0000.0001)  ploadbar=  1.01155916830647E+05
 cg2d: Sum(rhs),rhsMax =  -4.35512121346315E+01  2.36273441854816E+00
(PID.TID 0000.0001)  ploadbar=  1.01155231917955E+05
 cg2d: Sum(rhs),rhsMax =  -4.36526708968791E+01  2.35823282879611E+00
(PID.TID 0000.0001)  ploadbar=  1.01154547005262E+05
 cg2d: Sum(rhs),rhsMax =  -4.37674244733266E+01  2.35309650777658E+00
(PID.TID 0000.0001)  ploadbar=  1.01153862092569E+05
 cg2d: Sum(rhs),rhsMax =  -4.38973220487592E+01  2.34723706042170E+00
(PID.TID 0000.0001)  ploadbar=  1.01153177179877E+05
 cg2d: Sum(rhs),rhsMax =  -4.40418460700956E+01  2.34069446684370E+00
(PID.TID 0000.0001)  ploadbar=  1.01152492267184E+05
 cg2d: Sum(rhs),rhsMax =  -4.41987213646056E+01  2.33360138385652E+00
(PID.TID 0000.0001)  ploadbar=  1.01151807354491E+05
 cg2d: Sum(rhs),rhsMax =  -4.48950648606241E+01  2.29858374841258E+00
(PID.TID 0000.0001)  ploadbar=  1.01151430280071E+05
 cg2d: Sum(rhs),rhsMax =  -4.56660516976706E+01  2.26091988390298E+00
(PID.TID 0000.0001)  ploadbar=  1.01151053205651E+05
 cg2d: Sum(rhs),rhsMax =  -4.62799405858977E+01  2.23203863132955E+00
(PID.TID 0000.0001)  ploadbar=  1.01150676131231E+05
 cg2d: Sum(rhs),rhsMax =  -4.61793935692013E+01  2.23798763435542E+00
(PID.TID 0000.0001)  ploadbar=  1.01150299056811E+05
 cg2d: Sum(rhs),rhsMax =  -4.60896793710099E+01  2.24340702675315E+00
(PID.TID 0000.0001)  ploadbar=  1.01149921982391E+05
 cg2d: Sum(rhs),rhsMax =  -4.60178028672369E+01  2.24793870642970E+00
(PID.TID 0000.0001)  ploadbar=  1.01149544907971E+05
 cg2d: Sum(rhs),rhsMax =  -4.59651523362534E+01  2.25157830586383E+00
(PID.TID 0000.0001)  ploadbar=  1.01150737770120E+05
 cg2d: Sum(rhs),rhsMax =  -4.59392948011650E+01  2.25394849008958E+00
(PID.TID 0000.0001)  ploadbar=  1.01151930632268E+05
 cg2d: Sum(rhs),rhsMax =  -4.59406440026143E+01  2.25502154709635E+00
(PID.TID 0000.0001)  ploadbar=  1.01153123494416E+05
(PID.TID 0000.0001) %CHECKPOINT     13111 ckptA
(PID.TID 0000.0001) gmsl          13     0.81179E-03    -0.15315E-03
(PID.TID 0000.0001) gmsl          14    -0.22353E-02    -0.10591E-02
(PID.TID 0000.0001) gmsl          15    -0.89193E-03     0.34667E-03
(PID.TID 0000.0001) gmsl          16     0.53759E-03     0.41801E-03
(PID.TID 0000.0001) gmsl          17     0.64356E-03     0.19030E-03
(PID.TID 0000.0001) gmsl          18     0.11343E-02     0.25727E-03
(PID.TID 0000.0001)  sshv4: use global mean of eta useEtaMean= F
(PID.TID 0000.0001)  sshv4:re-reference MDT= T
(PID.TID 0000.0001) mdt[start,end]date(1): 19930101,20171231
(PID.TID 0000.0001)   TP MDT yrrange:          1993,2017
(PID.TID 0000.0001)  --> f_gencost = 0.144977406664996E+08 1
(PID.TID 0000.0001)  --> f_gencost = 0.307014488941983E+06 2
(PID.TID 0000.0001)  --> f_gencost = 0.165892978850654E+07 3
(PID.TID 0000.0001)  --> f_gencost = 0.149964233450415E+05 4
(PID.TID 0000.0001)  --> f_gencost = 0.980758284544092E+05 5
(PID.TID 0000.0001)  --> f_gencost = 0.590486124865030E+06 7
(PID.TID 0000.0001)  --> f_gencost = 0.560603106812757E+06 8
(PID.TID 0000.0001)  --> f_gencost =                   NaN11
(PID.TID 0000.0001)  --> f_gencost = 0.450422746494381E+0612
(PID.TID 0000.0001)  --> f_gencost = 0.803459172965572E+0613
(PID.TID 0000.0001)  --> f_gencost = 0.115930733079993E+0715
(PID.TID 0000.0001)  --> f_gencost = 0.207552393231421E+0717
(PID.TID 0000.0001)  --> f_gencost = 0.248032044797513E+0718
(PID.TID 0000.0001)  --> f_gencost = 0.331517513954082E+0022
(PID.TID 0000.0001)  --> f_gencost = 0.125506300553574E+1127
(PID.TID 0000.0001)  --> f_genarr2d = 0.112316272108573E+00 1
(PID.TID 0000.0001)  --> f_genarr3d = 0.603915502546039E+04 1
(PID.TID 0000.0001)  --> f_genarr3d = 0.271902630686723E+04 2
(PID.TID 0000.0001)  --> f_genarr3d = 0.168301931515202E+05 3
(PID.TID 0000.0001)  --> f_genarr3d = 0.519422256503462E+04 4
(PID.TID 0000.0001)  --> f_genarr3d = 0.101631908524040E+05 5
(PID.TID 0000.0001)  --> f_genarr3d = 0.247466853841388E+01 6
(PID.TID 0000.0001)  --> f_genarr3d = 0.279378863819903E+02 7
(PID.TID 0000.0001)  --> fc               =                   NaN
(PID.TID 0000.0001)   early fc =  0.000000000000000E+00
(PID.TID 0000.0001)   local fc =  0.310649177226378E+04
(PID.TID 0000.0001)  global fc =                    NaN
(PID.TID 0000.0001)   Seconds in section "ALL                    [THE_MODEL_MAIN]":
(PID.TID 0000.0001)           User time: 7956.9000000000005
(PID.TID 0000.0001)         System time: 125.92
(PID.TID 0000.0001)     Wall clock time: 9349.334921836853
(PID.TID 0000.0001)          No. starts: 1
(PID.TID 0000.0001)           No. stops: 1
(PID.TID 0000.0001)   Seconds in section "INITIALISE_FIXED       [THE_MODEL_MAIN]":
(PID.TID 0000.0001)           User time: 20.960000000000001
(PID.TID 0000.0001)         System time: 0.5
(PID.TID 0000.0001)     Wall clock time: 33.815652132034302
(PID.TID 0000.0001)          No. starts: 1
(PID.TID 0000.0001)           No. stops: 1
(PID.TID 0000.0001)   Seconds in section "THE_MAIN_LOOP          [THE_MODEL_MAIN]":
(PID.TID 0000.0001)           User time: 7935.9400000000005
(PID.TID 0000.0001)         System time: 125.42
(PID.TID 0000.0001)     Wall clock time: 9315.519031047821
(PID.TID 0000.0001)          No. starts: 1
(PID.TID 0000.0001)           No. stops: 1
(PID.TID 0000.0001)   Seconds in section "INITIALISE_VARIA    [THE_MAIN_LOOP]":
(PID.TID 0000.0001)           User time: 111.
(PID.TID 0000.0001)         System time: 1.3899999999999999
(PID.TID 0000.0001)     Wall clock time: 124.0948441028595
(PID.TID 0000.0001)          No. starts: 1
(PID.TID 0000.0001)           No. stops: 1
(PID.TID 0000.0001)   Seconds in section "MAIN LOOP           [THE_MAIN_LOOP]":
(PID.TID 0000.0001)           User time: 7824.9400000000005
(PID.TID 0000.0001)         System time: 124.03
(PID.TID 0000.0001)     Wall clock time: 9191.4241540431976
(PID.TID 0000.0001)          No. starts: 1
(PID.TID 0000.0001)           No. stops: 1
(PID.TID 0000.0001)   Seconds in section "COST_AVERAGESFIELDS [MAIN_DO_LOOP]":
(PID.TID 0000.0001)           User time: 144.29000000000269
(PID.TID 0000.0001)         System time: 4.4999999999993321
(PID.TID 0000.0001)     Wall clock time: 283.13227915763855
(PID.TID 0000.0001)          No. starts: 13110
(PID.TID 0000.0001)           No. stops: 13110
(PID.TID 0000.0001)   Seconds in section "MAIN_DO_LOOP        [THE_MAIN_LOOP]":
(PID.TID 0000.0001)           User time: 5372.9599999999436
(PID.TID 0000.0001)         System time: 59.49999999999153
(PID.TID 0000.0001)     Wall clock time: 6131.6180257797241
(PID.TID 0000.0001)          No. starts: 13110
(PID.TID 0000.0001)           No. stops: 13110
(PID.TID 0000.0001)   Seconds in section "FORWARD_STEP        [MAIN_DO_LOOP]":
(PID.TID 0000.0001)           User time: 5372.6699999999391
(PID.TID 0000.0001)         System time: 59.489999999991511
(PID.TID 0000.0001)     Wall clock time: 6131.3899519443512
(PID.TID 0000.0001)          No. starts: 13110
(PID.TID 0000.0001)           No. stops: 13110
(PID.TID 0000.0001)   Seconds in section "UPDATE_R_STAR       [FORWARD_STEP]":
(PID.TID 0000.0001)           User time: 12.859999999996944
(PID.TID 0000.0001)         System time: 3.99999999999920419E-2
(PID.TID 0000.0001)     Wall clock time: 13.305165767669678
(PID.TID 0000.0001)          No. starts: 26220
(PID.TID 0000.0001)           No. stops: 26220
(PID.TID 0000.0001)   Seconds in section "DO_STATEVARS_DIAGS  [FORWARD_STEP]":
(PID.TID 0000.0001)           User time: 10.029999999994288
(PID.TID 0000.0001)         System time: 0.
(PID.TID 0000.0001)     Wall clock time: 10.511166095733643
(PID.TID 0000.0001)          No. starts: 39330
(PID.TID 0000.0001)           No. stops: 39330
(PID.TID 0000.0001)   Seconds in section "LOAD_FIELDS_DRIVER  [FORWARD_STEP]":
(PID.TID 0000.0001)           User time: 324.64999999998872
(PID.TID 0000.0001)         System time: 12.899999999998457
(PID.TID 0000.0001)     Wall clock time: 425.18619751930237
(PID.TID 0000.0001)          No. starts: 13110
(PID.TID 0000.0001)           No. stops: 13110
(PID.TID 0000.0001)   Seconds in section "EXF_GETFORCING     [LOAD_FLDS_DRIVER]":
(PID.TID 0000.0001)           User time: 323.40999999998712
(PID.TID 0000.0001)         System time: 12.899999999998457
(PID.TID 0000.0001)     Wall clock time: 423.94113850593567
(PID.TID 0000.0001)          No. starts: 13110
(PID.TID 0000.0001)           No. stops: 13110
(PID.TID 0000.0001)   Seconds in section "EXTERNAL_FLDS_LOAD [LOAD_FLDS_DRIVER]":
(PID.TID 0000.0001)           User time: 6.99999999997089617E-2
(PID.TID 0000.0001)         System time: 0.
(PID.TID 0000.0001)     Wall clock time: 0.11146116256713867
(PID.TID 0000.0001)          No. starts: 13110
(PID.TID 0000.0001)           No. stops: 13110
(PID.TID 0000.0001)   Seconds in section "CTRL_MAP_FORCING  [FORWARD_STEP]":
(PID.TID 0000.0001)           User time: 26.550000000004729
(PID.TID 0000.0001)         System time: 0.13000000000000966
(PID.TID 0000.0001)     Wall clock time: 26.437869310379028
(PID.TID 0000.0001)          No. starts: 13110
(PID.TID 0000.0001)           No. stops: 13110
(PID.TID 0000.0001)   Seconds in section "DO_ATMOSPHERIC_PHYS [FORWARD_STEP]":
(PID.TID 0000.0001)           User time: 1.6600000000062209
(PID.TID 0000.0001)         System time: 1.9999999999996021E-2
(PID.TID 0000.0001)     Wall clock time: 1.5766711235046387
(PID.TID 0000.0001)          No. starts: 13110
(PID.TID 0000.0001)           No. stops: 13110
(PID.TID 0000.0001)   Seconds in section "DO_OCEANIC_PHYS     [FORWARD_STEP]":
(PID.TID 0000.0001)           User time: 890.2400000000016
(PID.TID 0000.0001)         System time: 1.6499999999997783
(PID.TID 0000.0001)     Wall clock time: 892.65433168411255
(PID.TID 0000.0001)          No. starts: 13110
(PID.TID 0000.0001)           No. stops: 13110
(PID.TID 0000.0001)   Seconds in section "SEAICE_MODEL    [DO_OCEANIC_PHYS]":
(PID.TID 0000.0001)           User time: 572.50999999998476
(PID.TID 0000.0001)         System time: 1.5199999999998113
(PID.TID 0000.0001)     Wall clock time: 574.80684971809387
(PID.TID 0000.0001)          No. starts: 13110
(PID.TID 0000.0001)           No. stops: 13110
(PID.TID 0000.0001)   Seconds in section "SEAICE_DYNSOLVER   [SEAICE_MODEL]":
(PID.TID 0000.0001)           User time: 541.94999999999345
(PID.TID 0000.0001)         System time: 1.4399999999998272
(PID.TID 0000.0001)     Wall clock time: 543.5559458732605
(PID.TID 0000.0001)          No. starts: 13110
(PID.TID 0000.0001)           No. stops: 13110
(PID.TID 0000.0001)   Seconds in section "GGL90_CALC [DO_OCEANIC_PHYS]":
(PID.TID 0000.0001)           User time: 63.220000000013897
(PID.TID 0000.0001)         System time: 0.
(PID.TID 0000.0001)     Wall clock time: 62.634027719497681
(PID.TID 0000.0001)          No. starts: 13110
(PID.TID 0000.0001)           No. stops: 13110
(PID.TID 0000.0001)   Seconds in section "DYNAMICS            [FORWARD_STEP]":
(PID.TID 0000.0001)           User time: 285.86999999999352
(PID.TID 0000.0001)         System time: 1.9999999999996021E-2
(PID.TID 0000.0001)     Wall clock time: 285.61749339103699
(PID.TID 0000.0001)          No. starts: 13110
(PID.TID 0000.0001)           No. stops: 13110
(PID.TID 0000.0001)   Seconds in section "UPDATE_CG2D         [FORWARD_STEP]":
(PID.TID 0000.0001)           User time: 23.389999999997599
(PID.TID 0000.0001)         System time: 4.00000000000062528E-2
(PID.TID 0000.0001)     Wall clock time: 23.729366779327393
(PID.TID 0000.0001)          No. starts: 13110
(PID.TID 0000.0001)           No. stops: 13110
(PID.TID 0000.0001)   Seconds in section "SOLVE_FOR_PRESSURE  [FORWARD_STEP]":
(PID.TID 0000.0001)           User time: 2194.1900000000178
(PID.TID 0000.0001)         System time: 5.4099999999993429
(PID.TID 0000.0001)     Wall clock time: 2201.0385036468506
(PID.TID 0000.0001)          No. starts: 13110
(PID.TID 0000.0001)           No. stops: 13110
(PID.TID 0000.0001)   Seconds in section "MOM_CORRECTION_STEP [FORWARD_STEP]":
(PID.TID 0000.0001)           User time: 3.7899999999935972
(PID.TID 0000.0001)         System time: 0.
(PID.TID 0000.0001)     Wall clock time: 4.0343053340911865
(PID.TID 0000.0001)          No. starts: 13110
(PID.TID 0000.0001)           No. stops: 13110
(PID.TID 0000.0001)   Seconds in section "INTEGR_CONTINUITY   [FORWARD_STEP]":
(PID.TID 0000.0001)           User time: 8.4599999999991269
(PID.TID 0000.0001)         System time: 1.00000000000051159E-2
(PID.TID 0000.0001)     Wall clock time: 8.6092686653137207
(PID.TID 0000.0001)          No. starts: 13110
(PID.TID 0000.0001)           No. stops: 13110
(PID.TID 0000.0001)   Seconds in section "CALC_R_STAR         [FORWARD_STEP]":
(PID.TID 0000.0001)           User time: 5.8100000000040382
(PID.TID 0000.0001)         System time: 1.9999999999996021E-2
(PID.TID 0000.0001)     Wall clock time: 5.7096707820892334
(PID.TID 0000.0001)          No. starts: 13110
(PID.TID 0000.0001)           No. stops: 13110
(PID.TID 0000.0001)   Seconds in section "BLOCKING_EXCHANGES  [FORWARD_STEP]":
(PID.TID 0000.0001)           User time: 108.77999999999793
(PID.TID 0000.0001)         System time: 0.31999999999995055
(PID.TID 0000.0001)     Wall clock time: 109.65692186355591
(PID.TID 0000.0001)          No. starts: 26220
(PID.TID 0000.0001)           No. stops: 26220
(PID.TID 0000.0001)   Seconds in section "THERMODYNAMICS      [FORWARD_STEP]":
(PID.TID 0000.0001)           User time: 319.33999999997559
(PID.TID 0000.0001)         System time: 3.00000000000153477E-2
(PID.TID 0000.0001)     Wall clock time: 318.49538540840149
(PID.TID 0000.0001)          No. starts: 13110
(PID.TID 0000.0001)           No. stops: 13110
(PID.TID 0000.0001)   Seconds in section "TRC_CORRECTION_STEP [FORWARD_STEP]":
(PID.TID 0000.0001)           User time: 0.12000000000080036
(PID.TID 0000.0001)         System time: 0.
(PID.TID 0000.0001)     Wall clock time: 0.11553239822387695
(PID.TID 0000.0001)          No. starts: 13110
(PID.TID 0000.0001)           No. stops: 13110
(PID.TID 0000.0001)   Seconds in section "DO_STATEVARS_TAVE   [FORWARD_STEP]":
(PID.TID 0000.0001)           User time: 0.1000000000003638
(PID.TID 0000.0001)         System time: 0.
(PID.TID 0000.0001)     Wall clock time: 0.11606955528259277
(PID.TID 0000.0001)          No. starts: 13110
(PID.TID 0000.0001)           No. stops: 13110
(PID.TID 0000.0001)   Seconds in section "MONITOR             [FORWARD_STEP]":
(PID.TID 0000.0001)           User time: 0.38999999999941792
(PID.TID 0000.0001)         System time: 0.
(PID.TID 0000.0001)     Wall clock time: 0.34837722778320312
(PID.TID 0000.0001)          No. starts: 13110
(PID.TID 0000.0001)           No. stops: 13110
(PID.TID 0000.0001)   Seconds in section "COST_TILE           [FORWARD_STEP]":
(PID.TID 0000.0001)           User time: 0.11000000000058208
(PID.TID 0000.0001)         System time: 0.
(PID.TID 0000.0001)     Wall clock time: 0.11561846733093262
(PID.TID 0000.0001)          No. starts: 13110
(PID.TID 0000.0001)           No. stops: 13110
(PID.TID 0000.0001)   Seconds in section "DO_THE_MODEL_IO     [FORWARD_STEP]":
(PID.TID 0000.0001)           User time: 701.15000000000236
(PID.TID 0000.0001)         System time: 37.769999999994724
(PID.TID 0000.0001)     Wall clock time: 1336.0163459777832
(PID.TID 0000.0001)          No. starts: 13110
(PID.TID 0000.0001)           No. stops: 13110
(PID.TID 0000.0001)   Seconds in section "DO_WRITE_PICKUP     [FORWARD_STEP]":
(PID.TID 0000.0001)           User time: 30.859999999997854
(PID.TID 0000.0001)         System time: 0.84999999999993747
(PID.TID 0000.0001)     Wall clock time: 43.249279499053955
(PID.TID 0000.0001)          No. starts: 13110
(PID.TID 0000.0001)           No. stops: 13110
(PID.TID 0000.0001)   Seconds in section "COST_AVERAGESFIELDS [THE_MAIN_LOOP]":
(PID.TID 0000.0001)           User time: 1.9799999999995634
(PID.TID 0000.0001)         System time: 4.99999999999971578E-2
(PID.TID 0000.0001)     Wall clock time: 3.3620009422302246
(PID.TID 0000.0001)          No. starts: 1
(PID.TID 0000.0001)           No. stops: 1
(PID.TID 0000.0001)   Seconds in section "ECCO_COST_DRIVER   [THE_MAIN_LOOP]":
(PID.TID 0000.0001)           User time: 2304.1900000000005
(PID.TID 0000.0001)         System time: 59.980000000000004
(PID.TID 0000.0001)     Wall clock time: 2771.7862269878387
(PID.TID 0000.0001)          No. starts: 1
(PID.TID 0000.0001)           No. stops: 1
(PID.TID 0000.0001)   Seconds in section "COST_GENCOST_ALL    [ECCO SPIN-DOWN]":
(PID.TID 0000.0001)           User time: 2299.2200000000003
(PID.TID 0000.0001)         System time: 59.849999999999994
(PID.TID 0000.0001)     Wall clock time: 2765.6574211120605
(PID.TID 0000.0001)          No. starts: 1
(PID.TID 0000.0001)           No. stops: 1
(PID.TID 0000.0001)   Seconds in section "CTRL_COST_DRIVER [ECCO SPIN-DOWN]":
(PID.TID 0000.0001)           User time: 4.9700000000002547
(PID.TID 0000.0001)         System time: 0.13000000000000966
(PID.TID 0000.0001)     Wall clock time: 6.1287758350372314
(PID.TID 0000.0001)          No. starts: 1
(PID.TID 0000.0001)           No. stops: 1
(PID.TID 0000.0001)   Seconds in section "COST_FINAL         [ADJOINT SPIN-DOWN]":
(PID.TID 0000.0001)           User time: 5.00000000001818989E-2
(PID.TID 0000.0001)         System time: 0.
(PID.TID 0000.0001)     Wall clock time: 7.92219638824462891E-2
(PID.TID 0000.0001)          No. starts: 1
(PID.TID 0000.0001)           No. stops: 1
(PID.TID 0000.0001) // ======================================================
(PID.TID 0000.0001) // Tile <-> Tile communication statistics
(PID.TID 0000.0001) // ======================================================
(PID.TID 0000.0001) // o Tile number: 000001
(PID.TID 0000.0001) //         No. X exchanges =              0
(PID.TID 0000.0001) //            Max. X spins =              0
(PID.TID 0000.0001) //            Min. X spins =     1000000000
(PID.TID 0000.0001) //          Total. X spins =              0
(PID.TID 0000.0001) //            Avg. X spins =       0.00E+00
(PID.TID 0000.0001) //         No. Y exchanges =              0
(PID.TID 0000.0001) //            Max. Y spins =              0
(PID.TID 0000.0001) //            Min. Y spins =     1000000000
(PID.TID 0000.0001) //          Total. Y spins =              0
(PID.TID 0000.0001) //            Avg. Y spins =       0.00E+00
(PID.TID 0000.0001) // o Thread number: 000001
(PID.TID 0000.0001) //            No. barriers =       45832260
(PID.TID 0000.0001) //      Max. barrier spins =              0
(PID.TID 0000.0001) //      Min. barrier spins =     1000000000
(PID.TID 0000.0001) //     Total barrier spins =              0
(PID.TID 0000.0001) //      Avg. barrier spins =       0.00E+00
PROGRAM MAIN: Execution ended Normally
